
     RDKit          3D

 58 62  0  0  0  0  0  0  0  0999 V2000
    4.5146    0.8060    5.6222 C   0  0  0  0  0  0  0  0  0  0  0  0
    3.9331   -0.0545    4.6483 O   0  0  0  0  0  0  0  0  0  0  0  0
    3.9777    0.1715    3.2645 C   0  0  0  0  0  0  0  0  0  0  0  0
    4.6190    1.2910    2.7022 C   0  0  0  0  0  0  0  0  0  0  0  0
    4.6333    1.4726    1.3160 C   0  0  0  0  0  0  0  0  0  0  0  0
    3.9973    0.5515    0.4702 C   0  0  0  0  0  0  0  0  0  0  0  0
    3.3778   -0.5771    1.0329 C   0  0  0  0  0  0  0  0  0  0  0  0
    3.3634   -0.7581    2.4186 C   0  0  0  0  0  0  0  0  0  0  0  0
    4.0343    0.7653   -0.9928 C   0  0  0  0  0  0  0  0  0  0  0  0
    3.0335    0.4588   -1.9277 C   0  0  0  0  0  0  0  0  0  0  0  0
    3.5568    0.8500   -3.1525 C   0  0  0  0  0  0  0  0  0  0  0  0
    3.0827    0.8711   -4.4716 C   0  0  0  0  0  0  0  0  0  0  0  0
    1.7492    0.4977   -4.8235 N   0  0  0  0  0  0  0  0  0  0  0  0
    3.9293    1.3270   -5.4415 N   0  0  0  0  0  0  0  0  0  0  0  0
    5.1883    1.7745   -5.1466 C   0  0  0  0  0  0  0  0  0  0  0  0
    5.6302    1.7930   -3.8564 N   0  0  0  0  0  0  0  0  0  0  0  0
    4.8065    1.3347   -2.8845 C   0  0  0  0  0  0  0  0  0  0  0  0
    5.0784    1.2929   -1.6054 O   0  0  0  0  0  0  0  0  0  0  0  0
    1.7165   -0.1418   -1.6529 C   0  0  0  0  0  0  0  0  0  0  0  0
    0.8191    0.4946   -0.7844 C   0  0  0  0  0  0  0  0  0  0  0  0
   -0.4145   -0.0935   -0.4915 C   0  0  0  0  0  0  0  0  0  0  0  0
   -0.7702   -1.3250   -1.0710 C   0  0  0  0  0  0  0  0  0  0  0  0
   -2.0222   -1.9638   -0.7671 N   0  0  0  0  0  0  0  0  0  0  0  0
   -3.2453   -1.2572   -0.5102 C   0  0  0  0  0  0  0  0  0  0  0  0
   -3.3430   -0.0326   -0.7961 O   0  0  0  0  0  0  0  0  0  0  0  0
   -4.3815   -1.9724   -0.0011 N   0  0  0  0  0  0  0  0  0  0  0  0
   -5.5806   -1.3383    0.4778 C   0  0  0  0  0  0  0  0  0  0  0  0
   -6.8205   -1.9717    0.2967 C   0  0  0  0  0  0  0  0  0  0  0  0
   -6.8971   -3.1550   -0.3629 F   0  0  0  0  0  0  0  0  0  0  0  0
   -7.9892   -1.3856    0.7879 C   0  0  0  0  0  0  0  0  0  0  0  0
   -7.9340   -0.1673    1.4678 C   0  0  0  0  0  0  0  0  0  0  0  0
   -6.7048    0.4863    1.6560 C   0  0  0  0  0  0  0  0  0  0  0  0
   -5.5281   -0.1218    1.1834 C   0  0  0  0  0  0  0  0  0  0  0  0
   -6.6341    1.7677    2.4483 C   0  0  0  0  0  0  0  0  0  0  0  0
   -5.5876    2.5577    2.0044 F   0  0  0  0  0  0  0  0  0  0  0  0
   -7.8070    2.4911    2.3171 F   0  0  0  0  0  0  0  0  0  0  0  0
   -6.4371    1.4673    3.7831 F   0  0  0  0  0  0  0  0  0  0  0  0
    0.1454   -1.9729   -1.9137 C   0  0  0  0  0  0  0  0  0  0  0  0
    1.3792   -1.3852   -2.2057 C   0  0  0  0  0  0  0  0  0  0  0  0
    4.3278    0.3885    6.6327 H   0  0  0  0  0  0  0  0  0  0  0  0
    4.0544    1.8150    5.5637 H   0  0  0  0  0  0  0  0  0  0  0  0
    5.6115    0.8761    5.4636 H   0  0  0  0  0  0  0  0  0  0  0  0
    5.1091    2.0258    3.3262 H   0  0  0  0  0  0  0  0  0  0  0  0
    5.1302    2.3425    0.9037 H   0  0  0  0  0  0  0  0  0  0  0  0
    2.9261   -1.3339    0.4063 H   0  0  0  0  0  0  0  0  0  0  0  0
    2.8791   -1.6311    2.8375 H   0  0  0  0  0  0  0  0  0  0  0  0
    0.9894    0.4317   -4.1147 H   0  0  0  0  0  0  0  0  0  0  0  0
    1.4793    0.4354   -5.8301 H   0  0  0  0  0  0  0  0  0  0  0  0
    5.8311    2.1308   -5.9397 H   0  0  0  0  0  0  0  0  0  0  0  0
    1.0794    1.4413   -0.3267 H   0  0  0  0  0  0  0  0  0  0  0  0
   -1.0741    0.4014    0.2085 H   0  0  0  0  0  0  0  0  0  0  0  0
   -2.0636   -3.0074   -0.8066 H   0  0  0  0  0  0  0  0  0  0  0  0
   -4.3574   -3.0162   -0.0451 H   0  0  0  0  0  0  0  0  0  0  0  0
   -8.9418   -1.8800    0.6469 H   0  0  0  0  0  0  0  0  0  0  0  0
   -8.8513    0.2589    1.8543 H   0  0  0  0  0  0  0  0  0  0  0  0
   -4.5706    0.3389    1.3892 H   0  0  0  0  0  0  0  0  0  0  0  0
   -0.1013   -2.9329   -2.3496 H   0  0  0  0  0  0  0  0  0  0  0  0
    2.0737   -1.9001   -2.8582 H   0  0  0  0  0  0  0  0  0  0  0  0
  1  2  1  0
  2  3  1  0
  3  4  2  0
  4  5  1  0
  5  6  2  0
  6  7  1  0
  7  8  2  0
  6  9  1  0
  9 10  2  0
 10 11  1  0
 11 12  2  0
 12 13  1  0
 12 14  1  0
 14 15  2  0
 15 16  1  0
 16 17  2  0
 17 18  1  0
 10 19  1  0
 19 20  2  0
 20 21  1  0
 21 22  2  0
 22 23  1  0
 23 24  1  0
 24 25  2  0
 24 26  1  0
 26 27  1  0
 27 28  2  0
 28 29  1  0
 28 30  1  0
 30 31  2  0
 31 32  1  0
 32 33  2  0
 32 34  1  0
 34 35  1  0
 34 36  1  0
 34 37  1  0
 22 38  1  0
 38 39  2  0
  8  3  1  0
 18  9  1  0
 39 19  1  0
 17 11  1  0
 33 27  1  0
  1 40  1  0
  1 41  1  0
  1 42  1  0
  4 43  1  0
  5 44  1  0
  7 45  1  0
  8 46  1  0
 13 47  1  0
 13 48  1  0
 15 49  1  0
 20 50  1  0
 21 51  1  0
 23 52  1  0
 26 53  1  0
 30 54  1  0
 31 55  1  0
 33 56  1  0
 38 57  1  0
 39 58  1  0
M  END
$$$$
