
     RDKit          3D

 53 57  0  0  0  0  0  0  0  0999 V2000
   -8.0309   -2.1721    0.0139 N   0  0  0  0  0  0  0  0  0  0  0  0
   -6.6209   -2.5237    0.1762 C   0  0  0  0  0  0  0  0  0  0  0  0
   -5.7075   -1.3971   -0.3514 C   0  0  0  0  0  0  0  0  0  0  0  0
   -4.2804   -1.9405   -0.5982 C   0  0  0  0  0  0  0  0  0  0  0  0
   -3.2541   -0.8033   -0.5728 C   0  0  0  0  0  0  0  0  0  0  0  0
   -3.1807   -0.1501    0.7612 N   0  0  0  0  0  0  0  0  0  0  0  0
   -2.6306    1.2188    0.6607 C   0  0  0  0  0  0  0  0  0  0  0  0
   -1.2036    1.1920    0.1770 C   0  0  0  0  0  0  0  0  0  0  0  0
   -0.1883    0.6840    1.0170 C   0  0  0  0  0  0  0  0  0  0  0  0
    1.1133    0.6508    0.5233 C   0  0  0  0  0  0  0  0  0  0  0  0
    1.4214    1.0874   -0.7373 C   0  0  0  0  0  0  0  0  0  0  0  0
    2.7320    0.9373   -0.9907 N   0  0  0  0  0  0  0  0  0  0  0  0
    3.2625    0.4022    0.1359 C   0  0  0  0  0  0  0  0  0  0  0  0
    2.2784    0.1975    1.1009 C   0  0  0  0  0  0  0  0  0  0  0  0
    4.6753    0.0176    0.2963 C   0  0  0  0  0  0  0  0  0  0  0  0
    5.0868   -0.9649    1.1351 N   0  0  0  0  0  0  0  0  0  0  0  0
    6.4068   -1.0715    1.0407 N   0  0  0  0  0  0  0  0  0  0  0  0
    6.8455   -0.1617    0.1575 C   0  0  0  0  0  0  0  0  0  0  0  0
    5.7879    0.5534   -0.3340 C   0  0  0  0  0  0  0  0  0  0  0  0
    5.9732    1.6166   -1.2197 C   0  0  0  0  0  0  0  0  0  0  0  0
    7.2884    1.9065   -1.6295 C   0  0  0  0  0  0  0  0  0  0  0  0
    8.3792    1.1492   -1.1378 C   0  0  0  0  0  0  0  0  0  0  0  0
    8.1597    0.1007   -0.2220 C   0  0  0  0  0  0  0  0  0  0  0  0
    9.7187    1.4616   -1.5612 C   0  0  0  0  0  0  0  0  0  0  0  0
   10.7958    1.7129   -1.9016 N   0  0  0  0  0  0  0  0  0  0  0  0
    0.4454    1.5831   -1.5988 C   0  0  0  0  0  0  0  0  0  0  0  0
   -0.8803    1.6346   -1.1319 C   0  0  0  0  0  0  0  0  0  0  0  0
   -4.4647   -0.1668    1.5117 C   0  0  0  0  0  0  0  0  0  0  0  0
   -5.6910   -0.1604    0.5868 C   0  0  0  0  0  0  0  0  0  0  0  0
   -8.5929   -3.0473    0.1226 H   0  0  0  0  0  0  0  0  0  0  0  0
   -8.3155   -1.5501    0.8039 H   0  0  0  0  0  0  0  0  0  0  0  0
   -6.4219   -3.4523   -0.4049 H   0  0  0  0  0  0  0  0  0  0  0  0
   -6.3971   -2.7398    1.2453 H   0  0  0  0  0  0  0  0  0  0  0  0
   -6.1123   -1.0676   -1.3354 H   0  0  0  0  0  0  0  0  0  0  0  0
   -4.2415   -2.4549   -1.5833 H   0  0  0  0  0  0  0  0  0  0  0  0
   -4.0008   -2.6829    0.1826 H   0  0  0  0  0  0  0  0  0  0  0  0
   -3.5208   -0.0710   -1.3692 H   0  0  0  0  0  0  0  0  0  0  0  0
   -2.2569   -1.2256   -0.8221 H   0  0  0  0  0  0  0  0  0  0  0  0
   -3.2677    1.8494    0.0001 H   0  0  0  0  0  0  0  0  0  0  0  0
   -2.6245    1.7047    1.6616 H   0  0  0  0  0  0  0  0  0  0  0  0
   -0.4110    0.3233    2.0137 H   0  0  0  0  0  0  0  0  0  0  0  0
    3.2134    1.1353   -1.8947 H   0  0  0  0  0  0  0  0  0  0  0  0
    2.3994   -0.2302    2.0878 H   0  0  0  0  0  0  0  0  0  0  0  0
    6.9869   -1.7493    1.5831 H   0  0  0  0  0  0  0  0  0  0  0  0
    5.1505    2.2243   -1.5658 H   0  0  0  0  0  0  0  0  0  0  0  0
    7.4595    2.7251   -2.3181 H   0  0  0  0  0  0  0  0  0  0  0  0
    8.9803   -0.4794    0.1827 H   0  0  0  0  0  0  0  0  0  0  0  0
    0.6973    1.9155   -2.5975 H   0  0  0  0  0  0  0  0  0  0  0  0
   -1.6548    2.0109   -1.7883 H   0  0  0  0  0  0  0  0  0  0  0  0
   -4.4944   -1.0842    2.1383 H   0  0  0  0  0  0  0  0  0  0  0  0
   -4.5434    0.6858    2.2223 H   0  0  0  0  0  0  0  0  0  0  0  0
   -5.6588    0.7652   -0.0288 H   0  0  0  0  0  0  0  0  0  0  0  0
   -6.6105   -0.0989    1.2047 H   0  0  0  0  0  0  0  0  0  0  0  0
  1  2  1  0
  2  3  1  0
  3  4  1  0
  4  5  1  0
  5  6  1  0
  6  7  1  0
  7  8  1  0
  8  9  2  0
  9 10  1  0
 10 11  2  0
 11 12  1  0
 12 13  1  0
 13 14  2  0
 13 15  1  0
 15 16  2  0
 16 17  1  0
 17 18  1  0
 18 19  2  0
 19 20  1  0
 20 21  2  0
 21 22  1  0
 22 23  2  0
 22 24  1  0
 24 25  3  0
 11 26  1  0
 26 27  2  0
  6 28  1  0
 28 29  1  0
 29  3  1  0
 27  8  1  0
 14 10  1  0
 19 15  1  0
 23 18  1  0
  1 30  1  0
  1 31  1  0
  2 32  1  0
  2 33  1  0
  3 34  1  0
  4 35  1  0
  4 36  1  0
  5 37  1  0
  5 38  1  0
  7 39  1  0
  7 40  1  0
  9 41  1  0
 12 42  1  0
 14 43  1  0
 17 44  1  0
 20 45  1  0
 21 46  1  0
 23 47  1  0
 26 48  1  0
 27 49  1  0
 28 50  1  0
 28 51  1  0
 29 52  1  0
 29 53  1  0
M  END
$$$$
