
     RDKit          3D

 48 51  0  0  0  0  0  0  0  0999 V2000
   -0.3776   -0.7360    0.1885 C   0  0  2  0  0  0  0  0  0  0  0  0
   -1.2880   -1.8310   -0.4773 C   0  0  0  0  0  0  0  0  0  0  0  0
   -2.7315   -1.4791   -0.3090 C   0  0  0  0  0  0  0  0  0  0  0  0
   -3.8913   -2.2417   -0.4090 C   0  0  0  0  0  0  0  0  0  0  0  0
   -4.9814   -1.4456   -0.2408 N   0  0  0  0  0  0  0  0  0  0  0  0
   -4.5019   -0.2001   -0.0524 C   0  0  0  0  0  0  0  0  0  0  0  0
   -5.2011    0.9937    0.1123 C   0  0  0  0  0  0  0  0  0  0  0  0
   -4.4434    2.1817    0.2167 C   0  0  0  0  0  0  0  0  0  0  0  0
   -3.0253    2.1465    0.1489 C   0  0  0  0  0  0  0  0  0  0  0  0
   -2.3487    0.9084    0.0127 C   0  0  0  0  0  0  0  0  0  0  0  0
   -3.1457   -0.2105   -0.0958 C   0  0  0  0  0  0  0  0  0  0  0  0
   -0.8509    0.7156   -0.2133 C   0  0  1  0  0  0  0  0  0  0  0  0
   -0.0117    1.7580    0.5383 C   0  0  0  0  0  0  0  0  0  0  0  0
    1.4811    1.5336    0.2709 C   0  0  1  0  0  0  0  0  0  0  0  0
    2.3186    2.5567    1.0670 C   0  0  0  0  0  0  0  0  0  0  0  0
    4.0770    2.5562    0.5516 S   0  0  0  0  0  0  0  0  0  0  0  0
    3.8779    3.7400   -0.8202 C   0  0  0  0  0  0  0  0  0  0  0  0
    1.8686    0.0864    0.6282 C   0  0  0  0  0  0  0  0  0  0  0  0
    1.0716   -0.9001   -0.1460 N   0  0  0  0  0  0  0  0  0  0  0  0
    1.5583   -2.2794    0.1331 C   0  0  0  0  0  0  0  0  0  0  0  0
    3.0157   -2.5061   -0.3178 C   0  0  0  0  0  0  0  0  0  0  0  0
    3.3472   -3.9940   -0.4193 C   0  0  0  0  0  0  0  0  0  0  0  0
   -0.5128   -0.8450    1.2912 H   0  0  0  0  0  0  0  0  0  0  0  0
   -1.1418   -2.8157    0.0133 H   0  0  0  0  0  0  0  0  0  0  0  0
   -1.0576   -1.9115   -1.5611 H   0  0  0  0  0  0  0  0  0  0  0  0
   -3.9376   -3.3047   -0.6049 H   0  0  0  0  0  0  0  0  0  0  0  0
   -5.9830   -1.7380   -0.2773 H   0  0  0  0  0  0  0  0  0  0  0  0
   -6.2827    1.0133    0.1393 H   0  0  0  0  0  0  0  0  0  0  0  0
   -4.9509    3.1311    0.3270 H   0  0  0  0  0  0  0  0  0  0  0  0
   -2.4830    3.0796    0.1884 H   0  0  0  0  0  0  0  0  0  0  0  0
   -0.6706    0.8459   -1.3041 H   0  0  0  0  0  0  0  0  0  0  0  0
   -0.2221    1.6965    1.6298 H   0  0  0  0  0  0  0  0  0  0  0  0
   -0.2717    2.7778    0.1842 H   0  0  0  0  0  0  0  0  0  0  0  0
    1.6644    1.6884   -0.8151 H   0  0  0  0  0  0  0  0  0  0  0  0
    1.8984    3.5787    0.9481 H   0  0  0  0  0  0  0  0  0  0  0  0
    2.2747    2.3133    2.1503 H   0  0  0  0  0  0  0  0  0  0  0  0
    3.1575    3.3527   -1.5688 H   0  0  0  0  0  0  0  0  0  0  0  0
    3.5269    4.7186   -0.4321 H   0  0  0  0  0  0  0  0  0  0  0  0
    4.8600    3.8855   -1.3147 H   0  0  0  0  0  0  0  0  0  0  0  0
    1.7498   -0.0855    1.7231 H   0  0  0  0  0  0  0  0  0  0  0  0
    2.9430   -0.0143    0.3826 H   0  0  0  0  0  0  0  0  0  0  0  0
    1.4522   -2.5257    1.2139 H   0  0  0  0  0  0  0  0  0  0  0  0
    0.9613   -3.0076   -0.4492 H   0  0  0  0  0  0  0  0  0  0  0  0
    3.1805   -2.0324   -1.3100 H   0  0  0  0  0  0  0  0  0  0  0  0
    3.7188   -2.0614    0.4176 H   0  0  0  0  0  0  0  0  0  0  0  0
    4.4140   -4.1191   -0.7011 H   0  0  0  0  0  0  0  0  0  0  0  0
    2.7187   -4.4798   -1.1959 H   0  0  0  0  0  0  0  0  0  0  0  0
    3.1759   -4.4939    0.5579 H   0  0  0  0  0  0  0  0  0  0  0  0
  1  2  1  0
  2  3  1  0
  3  4  2  0
  4  5  1  0
  5  6  1  0
  6  7  2  0
  7  8  1  0
  8  9  2  0
  9 10  1  0
 10 11  2  0
 10 12  1  0
 12 13  1  0
 13 14  1  0
 14 15  1  0
 15 16  1  0
 16 17  1  0
 14 18  1  0
 18 19  1  0
 19 20  1  0
 20 21  1  0
 21 22  1  0
 12  1  1  0
 19  1  1  0
 11  3  1  0
 11  6  1  0
  1 23  1  1
  2 24  1  0
  2 25  1  0
  4 26  1  0
  5 27  1  0
  7 28  1  0
  8 29  1  0
  9 30  1  0
 12 31  1  6
 13 32  1  0
 13 33  1  0
 14 34  1  6
 15 35  1  0
 15 36  1  0
 17 37  1  0
 17 38  1  0
 17 39  1  0
 18 40  1  0
 18 41  1  0
 20 42  1  0
 20 43  1  0
 21 44  1  0
 21 45  1  0
 22 46  1  0
 22 47  1  0
 22 48  1  0
M  END
$$$$
