
     RDKit          3D

 15 16  0  0  0  0  0  0  0  0999 V2000
    2.4985   -1.0688    0.2383 N   0  0  0  0  0  0  0  0  0  0  0  0
    1.2329   -0.4279    0.0799 C   0  0  0  0  0  0  0  0  0  0  0  0
    0.0876   -1.1033    0.4122 N   0  0  0  0  0  0  0  0  0  0  0  0
   -1.0914   -0.4607    0.2474 C   0  0  0  0  0  0  0  0  0  0  0  0
   -1.1821    0.7962   -0.2228 C   0  0  0  0  0  0  0  0  0  0  0  0
   -2.4785    1.1498   -0.2703 N   0  0  0  0  0  0  0  0  0  0  0  0
   -3.1492    0.0855    0.1777 N   0  0  0  0  0  0  0  0  0  0  0  0
   -2.3241   -0.9088    0.4994 N   0  0  0  0  0  0  0  0  0  0  0  0
   -0.0369    1.4958   -0.5643 C   0  0  0  0  0  0  0  0  0  0  0  0
   -0.0962    2.6739   -1.0067 O   0  0  0  0  0  0  0  0  0  0  0  0
    1.1661    0.8613   -0.4041 N   0  0  0  0  0  0  0  0  0  0  0  0
    2.5526   -2.0451    0.6046 H   0  0  0  0  0  0  0  0  0  0  0  0
    3.3828   -0.5719   -0.0090 H   0  0  0  0  0  0  0  0  0  0  0  0
   -2.6092   -1.8413    0.8717 H   0  0  0  0  0  0  0  0  0  0  0  0
    2.0470    1.3653   -0.6539 H   0  0  0  0  0  0  0  0  0  0  0  0
  1  2  1  0
  2  3  2  0
  3  4  1  0
  4  5  2  0
  5  6  1  0
  6  7  2  0
  7  8  1  0
  5  9  1  0
  9 10  2  0
  9 11  1  0
 11  2  1  0
  8  4  1  0
  1 12  1  0
  1 13  1  0
  8 14  1  0
 11 15  1  0
M  END
$$$$
