
     RDKit          3D

 25 25  0  0  0  0  0  0  0  0999 V2000
    2.9483   -0.3427    0.2267 N   0  0  0  0  0  0  0  0  0  0  0  0
    1.5197   -0.1980    0.5225 C   0  0  1  0  0  0  0  0  0  0  0  0
    0.9777    1.1781    0.0557 C   0  0  2  0  0  0  0  0  0  0  0  0
    1.6237    2.2020    0.7667 O   0  0  0  0  0  0  0  0  0  0  0  0
   -0.4117    1.2752    0.3187 O   0  0  0  0  0  0  0  0  0  0  0  0
   -1.1356    0.3412   -0.4652 C   0  0  2  0  0  0  0  0  0  0  0  0
   -2.6358    0.6156   -0.3154 C   0  0  0  0  0  0  0  0  0  0  0  0
   -2.9317    1.8932   -0.8079 O   0  0  0  0  0  0  0  0  0  0  0  0
   -0.7870   -1.1082   -0.0444 C   0  0  2  0  0  0  0  0  0  0  0  0
   -1.2538   -1.4100    1.2503 O   0  0  0  0  0  0  0  0  0  0  0  0
    0.7355   -1.3365   -0.1576 C   0  0  2  0  0  0  0  0  0  0  0  0
    1.0909   -2.5651    0.4228 O   0  0  0  0  0  0  0  0  0  0  0  0
    3.4900    0.3167    0.8311 H   0  0  0  0  0  0  0  0  0  0  0  0
    3.1295   -0.0816   -0.7702 H   0  0  0  0  0  0  0  0  0  0  0  0
    1.3812   -0.2772    1.6242 H   0  0  0  0  0  0  0  0  0  0  0  0
    1.1662    1.3136   -1.0392 H   0  0  0  0  0  0  0  0  0  0  0  0
    2.4415    2.4443    0.2583 H   0  0  0  0  0  0  0  0  0  0  0  0
   -0.8936    0.4687   -1.5473 H   0  0  0  0  0  0  0  0  0  0  0  0
   -3.2123   -0.1445   -0.8894 H   0  0  0  0  0  0  0  0  0  0  0  0
   -2.9280    0.5546    0.7571 H   0  0  0  0  0  0  0  0  0  0  0  0
   -3.9092    2.0153   -0.6874 H   0  0  0  0  0  0  0  0  0  0  0  0
   -1.2882   -1.8054   -0.7514 H   0  0  0  0  0  0  0  0  0  0  0  0
   -0.8963   -0.7285    1.8756 H   0  0  0  0  0  0  0  0  0  0  0  0
    1.0072   -1.3459   -1.2405 H   0  0  0  0  0  0  0  0  0  0  0  0
    0.7719   -3.2752   -0.1936 H   0  0  0  0  0  0  0  0  0  0  0  0
  1  2  1  0
  2  3  1  0
  3  4  1  0
  3  5  1  0
  5  6  1  0
  6  7  1  0
  7  8  1  0
  6  9  1  0
  9 10  1  0
  9 11  1  0
 11 12  1  0
 11  2  1  0
  1 13  1  0
  1 14  1  0
  2 15  1  1
  3 16  1  6
  4 17  1  0
  6 18  1  6
  7 19  1  0
  7 20  1  0
  8 21  1  0
  9 22  1  6
 10 23  1  0
 11 24  1  6
 12 25  1  0
M  END
$$$$
