
     RDKit          3D

 50 52  0  0  0  0  0  0  0  0999 V2000
    3.2647    1.0606    0.7519 C   0  0  1  0  0  0  0  0  0  0  0  0
    2.4236    1.6924   -0.3833 C   0  0  0  0  0  0  0  0  0  0  0  0
    2.2005    0.7571   -1.5887 C   0  0  0  0  0  0  0  0  0  0  0  0
    2.2004   -0.7435   -1.1994 C   0  0  2  0  0  0  0  0  0  0  0  0
    3.6230   -1.0882   -0.6545 C   0  0  0  0  0  0  0  0  0  0  0  0
    4.2655    0.0115    0.2298 C   0  0  0  0  0  0  0  0  0  0  0  0
    1.9939   -1.5417   -2.4273 C   0  0  0  0  0  0  0  0  0  0  0  0
    1.8317   -2.1662   -3.3882 N   0  0  0  0  0  0  0  0  0  0  0  0
    1.0288   -1.0657   -0.2455 C   0  0  0  0  0  0  0  0  0  0  0  0
   -0.2920   -0.7948   -0.6655 C   0  0  0  0  0  0  0  0  0  0  0  0
   -1.3975   -1.0593    0.1650 C   0  0  0  0  0  0  0  0  0  0  0  0
   -2.7170   -0.7761   -0.2284 O   0  0  0  0  0  0  0  0  0  0  0  0
   -3.1041   -0.1477   -1.4541 C   0  0  0  0  0  0  0  0  0  0  0  0
   -2.7877    1.3453   -1.4210 C   0  0  0  0  0  0  0  0  0  0  0  0
   -4.0245    2.0348   -0.8529 C   0  0  0  0  0  0  0  0  0  0  0  0
   -5.1504    1.0041   -0.8587 C   0  0  0  0  0  0  0  0  0  0  0  0
   -4.6154   -0.2147   -1.5939 C   0  0  0  0  0  0  0  0  0  0  0  0
   -1.1942   -1.6243    1.4290 C   0  0  0  0  0  0  0  0  0  0  0  0
   -2.3154   -1.8779    2.2352 O   0  0  0  0  0  0  0  0  0  0  0  0
   -2.2594   -2.4441    3.5404 C   0  0  0  0  0  0  0  0  0  0  0  0
    0.1115   -1.9183    1.8529 C   0  0  0  0  0  0  0  0  0  0  0  0
    1.2050   -1.6471    1.0295 C   0  0  0  0  0  0  0  0  0  0  0  0
    3.9810    2.1279    1.5347 C   0  0  0  0  0  0  0  0  0  0  0  0
    4.9968    2.8709    0.9389 O   0  0  0  0  0  0  0  0  0  0  0  0
    3.6532    2.3618    2.7291 O   0  0  0  0  0  0  0  0  0  0  0  0
    2.5729    0.5511    1.4533 H   0  0  0  0  0  0  0  0  0  0  0  0
    2.9043    2.6229   -0.7593 H   0  0  0  0  0  0  0  0  0  0  0  0
    1.4351    1.9870    0.0333 H   0  0  0  0  0  0  0  0  0  0  0  0
    1.2607    1.0487   -2.1051 H   0  0  0  0  0  0  0  0  0  0  0  0
    3.0192    0.9375   -2.3228 H   0  0  0  0  0  0  0  0  0  0  0  0
    3.6377   -2.0726   -0.1434 H   0  0  0  0  0  0  0  0  0  0  0  0
    4.3165   -1.2321   -1.5155 H   0  0  0  0  0  0  0  0  0  0  0  0
    5.0486    0.5321   -0.3662 H   0  0  0  0  0  0  0  0  0  0  0  0
    4.7771   -0.4709    1.0914 H   0  0  0  0  0  0  0  0  0  0  0  0
   -0.4537   -0.3808   -1.6492 H   0  0  0  0  0  0  0  0  0  0  0  0
   -2.6250   -0.6579   -2.3185 H   0  0  0  0  0  0  0  0  0  0  0  0
   -1.8888    1.5720   -0.8082 H   0  0  0  0  0  0  0  0  0  0  0  0
   -2.6064    1.7029   -2.4587 H   0  0  0  0  0  0  0  0  0  0  0  0
   -3.8290    2.3797    0.1862 H   0  0  0  0  0  0  0  0  0  0  0  0
   -4.2961    2.9148   -1.4762 H   0  0  0  0  0  0  0  0  0  0  0  0
   -6.0590    1.4021   -1.3607 H   0  0  0  0  0  0  0  0  0  0  0  0
   -5.4091    0.7241    0.1865 H   0  0  0  0  0  0  0  0  0  0  0  0
   -4.8905   -0.1473   -2.6702 H   0  0  0  0  0  0  0  0  0  0  0  0
   -5.0287   -1.1582   -1.1750 H   0  0  0  0  0  0  0  0  0  0  0  0
   -3.2896   -2.5304    3.9424 H   0  0  0  0  0  0  0  0  0  0  0  0
   -1.6682   -1.7899    4.2154 H   0  0  0  0  0  0  0  0  0  0  0  0
   -1.8085   -3.4580    3.4978 H   0  0  0  0  0  0  0  0  0  0  0  0
    0.2954   -2.3534    2.8258 H   0  0  0  0  0  0  0  0  0  0  0  0
    2.1813   -1.8754    1.4262 H   0  0  0  0  0  0  0  0  0  0  0  0
    5.4818    3.5953    1.4547 H   0  0  0  0  0  0  0  0  0  0  0  0
  1  2  1  0
  2  3  1  0
  3  4  1  0
  4  5  1  0
  5  6  1  0
  4  7  1  6
  7  8  3  0
  4  9  1  0
  9 10  2  0
 10 11  1  0
 11 12  1  0
 12 13  1  0
 13 14  1  0
 14 15  1  0
 15 16  1  0
 16 17  1  0
 11 18  2  0
 18 19  1  0
 19 20  1  0
 18 21  1  0
 21 22  2  0
  1 23  1  0
 23 24  1  0
 23 25  2  0
  6  1  1  0
 22  9  1  0
 17 13  1  0
  1 26  1  1
  2 27  1  0
  2 28  1  0
  3 29  1  0
  3 30  1  0
  5 31  1  0
  5 32  1  0
  6 33  1  0
  6 34  1  0
 10 35  1  0
 13 36  1  0
 14 37  1  0
 14 38  1  0
 15 39  1  0
 15 40  1  0
 16 41  1  0
 16 42  1  0
 17 43  1  0
 17 44  1  0
 20 45  1  0
 20 46  1  0
 20 47  1  0
 21 48  1  0
 22 49  1  0
 24 50  1  0
M  END
$$$$
