
     RDKit          3D

 34 34  0  0  0  0  0  0  0  0999 V2000
   -1.5515    1.9327    1.6725 O   0  0  0  0  0  0  0  0  0  0  0  0
   -0.7647    1.3387    0.6718 C   0  0  1  0  0  0  0  0  0  0  0  0
    0.5979    0.9341    1.2626 C   0  0  1  0  0  0  0  0  0  0  0  0
    0.4229   -0.0412    2.2625 O   0  0  0  0  0  0  0  0  0  0  0  0
    1.5516    0.4110    0.1532 C   0  0  1  0  0  0  0  0  0  0  0  0
    2.4716   -0.5008    0.7318 O   0  0  0  0  0  0  0  0  0  0  0  0
    4.0506   -0.2086    0.1465 P   0  0  0  0  0  5  0  0  0  0  0  0
    5.0710   -1.4553    0.6633 O   0  0  0  0  0  0  0  0  0  0  0  0
    4.0561   -0.1534   -1.5455 O   0  0  0  0  0  0  0  0  0  0  0  0
    4.5600    1.1065    0.6923 O   0  0  0  0  0  0  0  0  0  0  0  0
    0.8000   -0.2835   -1.0247 C   0  0  2  0  0  0  0  0  0  0  0  0
    0.5486    0.6399   -2.0548 O   0  0  0  0  0  0  0  0  0  0  0  0
   -0.5341   -0.9161   -0.5858 C   0  0  1  0  0  0  0  0  0  0  0  0
   -0.2693   -1.9683    0.3081 O   0  0  0  0  0  0  0  0  0  0  0  0
   -1.5054    0.1189    0.0627 C   0  0  2  0  0  0  0  0  0  0  0  0
   -2.4028    0.6020   -0.9221 O   0  0  0  0  0  0  0  0  0  0  0  0
   -3.9080   -0.1957   -0.7923 P   0  0  0  0  0  5  0  0  0  0  0  0
   -3.6966   -1.8730   -0.8851 O   0  0  0  0  0  0  0  0  0  0  0  0
   -4.6359    0.1945    0.6851 O   0  0  0  0  0  0  0  0  0  0  0  0
   -4.8061    0.2568   -1.9212 O   0  0  0  0  0  0  0  0  0  0  0  0
   -2.2927    2.4058    1.2113 H   0  0  0  0  0  0  0  0  0  0  0  0
   -0.5698    2.0941   -0.1266 H   0  0  0  0  0  0  0  0  0  0  0  0
    1.0724    1.8376    1.7156 H   0  0  0  0  0  0  0  0  0  0  0  0
    0.1163    0.4312    3.0800 H   0  0  0  0  0  0  0  0  0  0  0  0
    2.0510    1.3235   -0.2559 H   0  0  0  0  0  0  0  0  0  0  0  0
    4.9499   -1.4897    1.6457 H   0  0  0  0  0  0  0  0  0  0  0  0
    3.9226   -1.0928   -1.8289 H   0  0  0  0  0  0  0  0  0  0  0  0
    1.4344   -1.1053   -1.4329 H   0  0  0  0  0  0  0  0  0  0  0  0
    1.4079    0.7815   -2.5319 H   0  0  0  0  0  0  0  0  0  0  0  0
   -1.0086   -1.3431   -1.5006 H   0  0  0  0  0  0  0  0  0  0  0  0
   -1.0785   -2.5434    0.3249 H   0  0  0  0  0  0  0  0  0  0  0  0
   -2.0235   -0.3827    0.9169 H   0  0  0  0  0  0  0  0  0  0  0  0
   -3.3951   -2.0404   -1.8135 H   0  0  0  0  0  0  0  0  0  0  0  0
   -4.6422    1.1845    0.7096 H   0  0  0  0  0  0  0  0  0  0  0  0
  1  2  1  0
  2  3  1  0
  3  4  1  0
  3  5  1  0
  5  6  1  0
  6  7  1  0
  7  8  1  0
  7  9  1  0
  7 10  2  0
  5 11  1  0
 11 12  1  0
 11 13  1  0
 13 14  1  0
 13 15  1  0
 15 16  1  0
 16 17  1  0
 17 18  1  0
 17 19  1  0
 17 20  2  0
 15  2  1  0
  1 21  1  0
  2 22  1  6
  3 23  1  1
  4 24  1  0
  5 25  1  6
  8 26  1  0
  9 27  1  0
 11 28  1  6
 12 29  1  0
 13 30  1  6
 14 31  1  0
 15 32  1  1
 18 33  1  0
 19 34  1  0
M  END
$$$$
