
     RDKit          3D

132138  0  0  0  0  0  0  0  0999 V2000
    7.3637    1.4248   -4.1783 C   0  0  0  0  0  0  0  0  0  0  0  0
    7.3073    0.8257   -2.9011 O   0  0  0  0  0  0  0  0  0  0  0  0
    6.6017    1.6537   -1.9907 C   0  0  1  0  0  0  0  0  0  0  0  0
    5.1261    1.3464   -2.1067 C   0  0  0  0  0  0  0  0  0  0  0  0
    4.2242    2.3125   -2.3043 C   0  0  0  0  0  0  0  0  0  0  0  0
    2.8557    2.0423   -2.2685 O   0  0  0  0  0  0  0  0  0  0  0  0
    2.1496    1.3555   -3.3014 C   0  0  1  0  0  0  0  0  0  0  0  0
    1.9005    2.2677   -4.5015 C   0  0  0  0  0  0  0  0  0  0  0  0
    2.8386    0.1729   -3.7020 O   0  0  0  0  0  0  0  0  0  0  0  0
    2.1049   -0.9580   -3.3667 C   0  0  0  0  0  0  0  0  0  0  0  0
    2.5315   -2.2731   -3.5205 C   0  0  0  0  0  0  0  0  0  0  0  0
    3.8515   -2.5750   -4.1745 C   0  0  0  0  0  0  0  0  0  0  0  0
    1.7428   -3.3029   -2.9701 C   0  0  0  0  0  0  0  0  0  0  0  0
    2.1477   -4.6216   -3.2027 O   0  0  0  0  0  0  0  0  0  0  0  0
    0.5696   -2.9833   -2.2085 C   0  0  0  0  0  0  0  0  0  0  0  0
   -0.0180   -3.9191   -1.3085 C   0  0  0  0  0  0  0  0  0  0  0  0
    0.5241   -5.0385   -1.1024 O   0  0  0  0  0  0  0  0  0  0  0  0
   -1.1505   -3.5864   -0.5463 C   0  0  0  0  0  0  0  0  0  0  0  0
   -1.5837   -4.4706    0.5037 N   0  0  0  0  0  0  0  0  0  0  0  0
   -1.8313   -4.0647    1.8646 C   0  0  0  0  0  0  0  0  0  0  0  0
   -2.1834   -4.9371    2.7026 O   0  0  0  0  0  0  0  0  0  0  0  0
   -1.7662   -2.6510    2.3083 C   0  0  0  0  0  0  0  0  0  0  0  0
   -2.9980   -2.0546    2.9306 C   0  0  0  0  0  0  0  0  0  0  0  0
   -0.6560   -1.8953    2.2227 C   0  0  0  0  0  0  0  0  0  0  0  0
    0.6790   -2.4032    1.8488 C   0  0  0  0  0  0  0  0  0  0  0  0
    1.6237   -1.5501    1.4269 C   0  0  0  0  0  0  0  0  0  0  0  0
    3.0768   -1.9230    1.1808 C   0  0  2  0  0  0  0  0  0  0  0  0
    3.1882   -3.2855    0.4687 C   0  0  0  0  0  0  0  0  0  0  0  0
    3.9340   -1.8633    2.4938 C   0  0  2  0  0  0  0  0  0  0  0  0
    3.2962   -1.0666    3.4640 O   0  0  0  0  0  0  0  0  0  0  0  0
    5.4305   -1.4029    2.3306 C   0  0  1  0  0  0  0  0  0  0  0  0
    6.1705   -2.1154    1.1834 C   0  0  0  0  0  0  0  0  0  0  0  0
    5.7061    0.1459    2.4015 C   0  0  1  0  0  0  0  0  0  0  0  0
    7.0575    0.3678    2.7305 O   0  0  0  0  0  0  0  0  0  0  0  0
    5.2241    1.0089    1.1660 C   0  0  1  0  0  0  0  0  0  0  0  0
    3.8917    1.7074    1.5034 C   0  0  0  0  0  0  0  0  0  0  0  0
    6.2953    2.0257    0.6037 C   0  0  2  0  0  0  0  0  0  0  0  0
    5.6999    3.2387    0.1236 O   0  0  0  0  0  0  0  0  0  0  0  0
    5.5214    4.3953    0.8926 C   0  0  0  0  0  0  0  0  0  0  0  0
    4.8651    5.5833    0.2775 C   0  0  0  0  0  0  0  0  0  0  0  0
    5.9428    4.4585    2.0794 O   0  0  0  0  0  0  0  0  0  0  0  0
    7.1456    1.3843   -0.5508 C   0  0  2  0  0  0  0  0  0  0  0  0
    8.6026    1.8733   -0.4608 C   0  0  0  0  0  0  0  0  0  0  0  0
   -1.8225   -2.3922   -0.8046 C   0  0  0  0  0  0  0  0  0  0  0  0
   -3.0164   -2.1460   -0.2816 O   0  0  0  0  0  0  0  0  0  0  0  0
   -3.6748   -1.0182   -0.5247 C   0  0  0  0  0  0  0  0  0  0  0  0
   -3.1163   -0.0322   -1.3708 C   0  0  0  0  0  0  0  0  0  0  0  0
   -1.8903   -0.2420   -1.9203 N   0  0  0  0  0  0  0  0  0  0  0  0
   -1.1921   -1.3773   -1.6691 C   0  0  0  0  0  0  0  0  0  0  0  0
    0.0668   -1.6429   -2.2399 C   0  0  0  0  0  0  0  0  0  0  0  0
    0.8912   -0.6461   -2.8069 C   0  0  0  0  0  0  0  0  0  0  0  0
    0.8726    0.8167   -2.7342 C   0  0  0  0  0  0  0  0  0  0  0  0
    0.0165    1.5248   -2.1439 O   0  0  0  0  0  0  0  0  0  0  0  0
   -3.8315    1.1501   -1.6316 C   0  0  0  0  0  0  0  0  0  0  0  0
   -3.3300    2.1336   -2.4847 O   0  0  0  0  0  0  0  0  0  0  0  0
   -5.0794    1.3509   -1.0308 C   0  0  0  0  0  0  0  0  0  0  0  0
   -5.6356    0.3768   -0.1840 C   0  0  0  0  0  0  0  0  0  0  0  0
   -4.9260   -0.8085    0.0600 C   0  0  0  0  0  0  0  0  0  0  0  0
   -6.9166    0.5907    0.4379 N   0  0  0  0  0  0  0  0  0  0  0  0
   -7.2662    1.9060    0.9838 C   0  0  0  0  0  0  0  0  0  0  0  0
   -8.1539    1.7373    2.2187 C   0  0  0  0  0  0  0  0  0  0  0  0
   -9.3128    0.8779    1.9032 N   0  0  0  0  0  0  0  0  0  0  0  0
  -10.2629    0.8091    3.0407 C   0  0  0  0  0  0  0  0  0  0  0  0
  -11.6373    1.3779    2.6382 C   0  0  0  0  0  0  0  0  0  0  0  0
  -12.2747    0.5633    1.5052 C   0  0  0  0  0  0  0  0  0  0  0  0
  -11.5434    2.8602    2.2543 C   0  0  0  0  0  0  0  0  0  0  0  0
   -8.8583   -0.4672    1.4969 C   0  0  0  0  0  0  0  0  0  0  0  0
   -8.0017   -0.3746    0.2336 C   0  0  0  0  0  0  0  0  0  0  0  0
    7.8377    0.7113   -4.8829 H   0  0  0  0  0  0  0  0  0  0  0  0
    6.3471    1.6569   -4.5669 H   0  0  0  0  0  0  0  0  0  0  0  0
    7.9901    2.3435   -4.1557 H   0  0  0  0  0  0  0  0  0  0  0  0
    6.7791    2.7380   -2.2024 H   0  0  0  0  0  0  0  0  0  0  0  0
    4.7955    0.3242   -1.9710 H   0  0  0  0  0  0  0  0  0  0  0  0
    4.5405    3.3409   -2.4226 H   0  0  0  0  0  0  0  0  0  0  0  0
    2.8697    2.5910   -4.9364 H   0  0  0  0  0  0  0  0  0  0  0  0
    1.3316    3.1685   -4.1869 H   0  0  0  0  0  0  0  0  0  0  0  0
    1.3232    1.7287   -5.2831 H   0  0  0  0  0  0  0  0  0  0  0  0
    3.7496   -3.4344   -4.8700 H   0  0  0  0  0  0  0  0  0  0  0  0
    4.6011   -2.8227   -3.3939 H   0  0  0  0  0  0  0  0  0  0  0  0
    4.2217   -1.7085   -4.7624 H   0  0  0  0  0  0  0  0  0  0  0  0
    1.5191   -5.4124   -3.1603 H   0  0  0  0  0  0  0  0  0  0  0  0
   -1.5630   -5.4981    0.3132 H   0  0  0  0  0  0  0  0  0  0  0  0
   -3.8988   -2.6519    2.6738 H   0  0  0  0  0  0  0  0  0  0  0  0
   -3.1597   -1.0180    2.5646 H   0  0  0  0  0  0  0  0  0  0  0  0
   -2.8843   -2.0366    4.0347 H   0  0  0  0  0  0  0  0  0  0  0  0
   -0.7235   -0.8488    2.5017 H   0  0  0  0  0  0  0  0  0  0  0  0
    0.8964   -3.4568    1.9624 H   0  0  0  0  0  0  0  0  0  0  0  0
    1.3576   -0.5080    1.2904 H   0  0  0  0  0  0  0  0  0  0  0  0
    3.4485   -1.1708    0.4644 H   0  0  0  0  0  0  0  0  0  0  0  0
    3.0065   -4.1293    1.1669 H   0  0  0  0  0  0  0  0  0  0  0  0
    4.1742   -3.4244   -0.0093 H   0  0  0  0  0  0  0  0  0  0  0  0
    2.4507   -3.3411   -0.3445 H   0  0  0  0  0  0  0  0  0  0  0  0
    3.9643   -2.9048    2.8955 H   0  0  0  0  0  0  0  0  0  0  0  0
    3.6758   -1.3184    4.3466 H   0  0  0  0  0  0  0  0  0  0  0  0
    5.9229   -1.7977    3.2494 H   0  0  0  0  0  0  0  0  0  0  0  0
    7.2639   -1.9465    1.2399 H   0  0  0  0  0  0  0  0  0  0  0  0
    6.0310   -3.2128    1.2743 H   0  0  0  0  0  0  0  0  0  0  0  0
    5.8163   -1.7778    0.1894 H   0  0  0  0  0  0  0  0  0  0  0  0
    5.1594    0.5143    3.2956 H   0  0  0  0  0  0  0  0  0  0  0  0
    7.6155    0.0848    1.9643 H   0  0  0  0  0  0  0  0  0  0  0  0
    4.9822    0.3192    0.3455 H   0  0  0  0  0  0  0  0  0  0  0  0
    3.1470    0.9750    1.8669 H   0  0  0  0  0  0  0  0  0  0  0  0
    4.0388    2.4684    2.2978 H   0  0  0  0  0  0  0  0  0  0  0  0
    3.4596    2.1912    0.6024 H   0  0  0  0  0  0  0  0  0  0  0  0
    6.9787    2.3109    1.4305 H   0  0  0  0  0  0  0  0  0  0  0  0
    5.6348    6.2245   -0.1997 H   0  0  0  0  0  0  0  0  0  0  0  0
    4.1362    5.2536   -0.4924 H   0  0  0  0  0  0  0  0  0  0  0  0
    4.3268    6.1689    1.0524 H   0  0  0  0  0  0  0  0  0  0  0  0
    7.1827    0.2822   -0.4047 H   0  0  0  0  0  0  0  0  0  0  0  0
    8.6498    2.9779   -0.5733 H   0  0  0  0  0  0  0  0  0  0  0  0
    9.2245    1.4051   -1.2530 H   0  0  0  0  0  0  0  0  0  0  0  0
    9.0452    1.5950    0.5191 H   0  0  0  0  0  0  0  0  0  0  0  0
   -2.4518    2.0278   -2.9768 H   0  0  0  0  0  0  0  0  0  0  0  0
   -5.6241    2.2629   -1.2397 H   0  0  0  0  0  0  0  0  0  0  0  0
   -5.3367   -1.5611    0.7214 H   0  0  0  0  0  0  0  0  0  0  0  0
   -6.3492    2.4630    1.2766 H   0  0  0  0  0  0  0  0  0  0  0  0
   -7.8085    2.4935    0.2113 H   0  0  0  0  0  0  0  0  0  0  0  0
   -7.5555    1.2996    3.0504 H   0  0  0  0  0  0  0  0  0  0  0  0
   -8.5018    2.7459    2.5333 H   0  0  0  0  0  0  0  0  0  0  0  0
   -9.8949    1.3738    3.9285 H   0  0  0  0  0  0  0  0  0  0  0  0
  -10.4066   -0.2349    3.4037 H   0  0  0  0  0  0  0  0  0  0  0  0
  -12.3055    1.3014    3.5247 H   0  0  0  0  0  0  0  0  0  0  0  0
  -11.6733    0.6405    0.5741 H   0  0  0  0  0  0  0  0  0  0  0  0
  -12.3503   -0.5057    1.7974 H   0  0  0  0  0  0  0  0  0  0  0  0
  -13.2996    0.9378    1.2971 H   0  0  0  0  0  0  0  0  0  0  0  0
  -12.5579    3.2672    2.0567 H   0  0  0  0  0  0  0  0  0  0  0  0
  -10.9233    2.9954    1.3423 H   0  0  0  0  0  0  0  0  0  0  0  0
  -11.0931    3.4435    3.0856 H   0  0  0  0  0  0  0  0  0  0  0  0
   -9.7348   -1.1142    1.2725 H   0  0  0  0  0  0  0  0  0  0  0  0
   -8.2695   -0.9468    2.3122 H   0  0  0  0  0  0  0  0  0  0  0  0
   -8.6323   -0.0381   -0.6178 H   0  0  0  0  0  0  0  0  0  0  0  0
   -7.6053   -1.3832   -0.0108 H   0  0  0  0  0  0  0  0  0  0  0  0
  1  2  1  0
  2  3  1  0
  3  4  1  0
  4  5  2  0
  5  6  1  0
  6  7  1  0
  7  8  1  6
  7  9  1  0
  9 10  1  0
 10 11  2  0
 11 12  1  0
 11 13  1  0
 13 14  1  0
 13 15  2  0
 15 16  1  0
 16 17  2  0
 16 18  1  0
 18 19  1  0
 19 20  1  0
 20 21  2  0
 20 22  1  0
 22 23  1  0
 22 24  2  0
 24 25  1  0
 25 26  2  0
 26 27  1  0
 27 28  1  0
 27 29  1  0
 29 30  1  0
 29 31  1  0
 31 32  1  0
 31 33  1  0
 33 34  1  0
 33 35  1  0
 35 36  1  0
 35 37  1  0
 37 38  1  0
 38 39  1  0
 39 40  1  0
 39 41  2  0
 37 42  1  0
 42 43  1  0
 18 44  2  0
 44 45  1  0
 45 46  1  0
 46 47  2  0
 47 48  1  0
 48 49  2  0
 49 50  1  0
 50 51  2  0
 51 52  1  0
 52 53  2  0
 47 54  1  0
 54 55  1  0
 54 56  2  0
 56 57  1  0
 57 58  2  0
 57 59  1  0
 59 60  1  0
 60 61  1  0
 61 62  1  0
 62 63  1  0
 63 64  1  0
 64 65  1  0
 64 66  1  0
 62 67  1  0
 67 68  1  0
 42  3  1  0
 49 44  1  0
 68 59  1  0
 52  7  1  0
 51 10  1  0
 50 15  1  0
 58 46  1  0
  1 69  1  0
  1 70  1  0
  1 71  1  0
  3 72  1  6
  4 73  1  0
  5 74  1  0
  8 75  1  0
  8 76  1  0
  8 77  1  0
 12 78  1  0
 12 79  1  0
 12 80  1  0
 14 81  1  0
 19 82  1  0
 23 83  1  0
 23 84  1  0
 23 85  1  0
 24 86  1  0
 25 87  1  0
 26 88  1  0
 27 89  1  6
 28 90  1  0
 28 91  1  0
 28 92  1  0
 29 93  1  1
 30 94  1  0
 31 95  1  1
 32 96  1  0
 32 97  1  0
 32 98  1  0
 33 99  1  1
 34100  1  0
 35101  1  6
 36102  1  0
 36103  1  0
 36104  1  0
 37105  1  1
 40106  1  0
 40107  1  0
 40108  1  0
 42109  1  1
 43110  1  0
 43111  1  0
 43112  1  0
 55113  1  0
 56114  1  0
 58115  1  0
 60116  1  0
 60117  1  0
 61118  1  0
 61119  1  0
 63120  1  0
 63121  1  0
 64122  1  0
 65123  1  0
 65124  1  0
 65125  1  0
 66126  1  0
 66127  1  0
 66128  1  0
 67129  1  0
 67130  1  0
 68131  1  0
 68132  1  0
M  END
$$$$
