
     RDKit          3D

 11 10  0  0  0  0  0  0  0  0999 V2000
   -1.2097    0.9251    0.5065 N   0  0  0  0  0  0  0  0  0  0  0  0
   -0.7568   -0.3386   -0.0690 C   0  0  0  0  0  0  0  0  0  0  0  0
    0.6747   -0.2149   -0.5902 C   0  0  0  0  0  0  0  0  0  0  0  0
    1.8626   -0.0587    0.7813 S   0  0  0  0  0  0  0  0  0  0  0  0
   -0.7484    1.0491    1.4367 H   0  0  0  0  0  0  0  0  0  0  0  0
   -2.2340    0.8377    0.6981 H   0  0  0  0  0  0  0  0  0  0  0  0
   -1.4185   -0.6055   -0.9221 H   0  0  0  0  0  0  0  0  0  0  0  0
   -0.8231   -1.1537    0.6860 H   0  0  0  0  0  0  0  0  0  0  0  0
    0.9298   -1.1244   -1.1745 H   0  0  0  0  0  0  0  0  0  0  0  0
    0.7612    0.6686   -1.2584 H   0  0  0  0  0  0  0  0  0  0  0  0
    2.9623    0.0152   -0.0945 H   0  0  0  0  0  0  0  0  0  0  0  0
  1  2  1  0
  2  3  1  0
  3  4  1  0
  1  5  1  0
  1  6  1  0
  2  7  1  0
  2  8  1  0
  3  9  1  0
  3 10  1  0
  4 11  1  0
M  END
$$$$
