
     RDKit          3D

 44 46  0  0  0  0  0  0  0  0999 V2000
   -2.7099   -2.0557   -0.4576 C   0  0  0  0  0  0  0  0  0  0  0  0
   -3.6286   -0.8476   -0.2649 C   0  0  0  0  0  0  0  0  0  0  0  0
   -5.0592   -1.1705   -0.7096 C   0  0  0  0  0  0  0  0  0  0  0  0
   -3.0978    0.3029   -1.0082 N   0  0  0  0  0  0  0  0  0  0  0  0
   -3.2900    0.4880   -2.3066 N   0  0  0  0  0  0  0  0  0  0  0  0
   -2.5500    1.5465   -2.6903 C   0  0  0  0  0  0  0  0  0  0  0  0
   -1.8447    2.0362   -1.6097 C   0  0  0  0  0  0  0  0  0  0  0  0
   -2.2071    1.2157   -0.5609 C   0  0  0  0  0  0  0  0  0  0  0  0
   -1.7054    1.3213    0.8226 C   0  0  0  0  0  0  0  0  0  0  0  0
   -0.3254    1.2450    1.1334 C   0  0  0  0  0  0  0  0  0  0  0  0
    0.7243    0.9995    0.0742 C   0  0  0  0  0  0  0  0  0  0  0  0
    1.7976    0.2264    0.6081 O   0  0  0  0  0  0  0  0  0  0  0  0
    2.9412   -0.1639   -0.1090 C   0  0  0  0  0  0  0  0  0  0  0  0
    3.1149    0.1882   -1.4618 C   0  0  0  0  0  0  0  0  0  0  0  0
    4.2559   -0.2101   -2.1555 C   0  0  0  0  0  0  0  0  0  0  0  0
    5.2376   -0.9619   -1.5149 C   0  0  0  0  0  0  0  0  0  0  0  0
    5.0890   -1.3245   -0.1700 C   0  0  0  0  0  0  0  0  0  0  0  0
    6.0881   -2.0777    0.4472 O   0  0  0  0  0  0  0  0  0  0  0  0
    3.9350   -0.9267    0.5465 C   0  0  0  0  0  0  0  0  0  0  0  0
    3.7447   -1.2919    1.9727 C   0  0  0  0  0  0  0  0  0  0  0  0
    4.5981   -1.9716    2.6018 O   0  0  0  0  0  0  0  0  0  0  0  0
    0.0676    1.4479    2.4679 C   0  0  0  0  0  0  0  0  0  0  0  0
   -0.8877    1.6605    3.4608 C   0  0  0  0  0  0  0  0  0  0  0  0
   -2.2365    1.6887    3.1154 C   0  0  0  0  0  0  0  0  0  0  0  0
   -2.6090    1.5300    1.8196 N   0  0  0  0  0  0  0  0  0  0  0  0
   -3.0876   -2.9231    0.1246 H   0  0  0  0  0  0  0  0  0  0  0  0
   -2.6544   -2.3356   -1.5314 H   0  0  0  0  0  0  0  0  0  0  0  0
   -1.6870   -1.8117   -0.0991 H   0  0  0  0  0  0  0  0  0  0  0  0
   -3.6678   -0.6123    0.8194 H   0  0  0  0  0  0  0  0  0  0  0  0
   -5.4759   -1.9917   -0.0882 H   0  0  0  0  0  0  0  0  0  0  0  0
   -5.7037   -0.2746   -0.5837 H   0  0  0  0  0  0  0  0  0  0  0  0
   -5.0816   -1.4832   -1.7756 H   0  0  0  0  0  0  0  0  0  0  0  0
   -2.5143    1.9303   -3.7008 H   0  0  0  0  0  0  0  0  0  0  0  0
   -1.1559    2.8705   -1.5942 H   0  0  0  0  0  0  0  0  0  0  0  0
    1.1073    1.9806   -0.2793 H   0  0  0  0  0  0  0  0  0  0  0  0
    0.2901    0.4419   -0.7823 H   0  0  0  0  0  0  0  0  0  0  0  0
    2.3718    0.7711   -1.9883 H   0  0  0  0  0  0  0  0  0  0  0  0
    4.3798    0.0655   -3.1950 H   0  0  0  0  0  0  0  0  0  0  0  0
    6.1187   -1.2643   -2.0666 H   0  0  0  0  0  0  0  0  0  0  0  0
    6.9203   -2.3705   -0.0517 H   0  0  0  0  0  0  0  0  0  0  0  0
    2.8560   -0.9750    2.5025 H   0  0  0  0  0  0  0  0  0  0  0  0
    1.1144    1.4337    2.7448 H   0  0  0  0  0  0  0  0  0  0  0  0
   -0.5843    1.8028    4.4900 H   0  0  0  0  0  0  0  0  0  0  0  0
   -2.9888    1.8510    3.8756 H   0  0  0  0  0  0  0  0  0  0  0  0
  1  2  1  0
  2  3  1  0
  2  4  1  0
  4  5  1  0
  5  6  2  0
  6  7  1  0
  7  8  2  0
  8  9  1  0
  9 10  1  0
 10 11  1  0
 11 12  1  0
 12 13  1  0
 13 14  2  0
 14 15  1  0
 15 16  2  0
 16 17  1  0
 17 18  1  0
 17 19  2  0
 19 20  1  0
 20 21  2  0
 10 22  2  0
 22 23  1  0
 23 24  2  0
 24 25  1  0
  8  4  1  0
 25  9  2  0
 19 13  1  0
  1 26  1  0
  1 27  1  0
  1 28  1  0
  2 29  1  0
  3 30  1  0
  3 31  1  0
  3 32  1  0
  6 33  1  0
  7 34  1  0
 11 35  1  0
 11 36  1  0
 14 37  1  0
 15 38  1  0
 16 39  1  0
 18 40  1  0
 20 41  1  0
 22 42  1  0
 23 43  1  0
 24 44  1  0
M  END
$$$$
