
     RDKit          3D

 50 52  0  0  0  0  0  0  0  0999 V2000
   -6.7328   -0.4858   -1.3238 C   0  0  0  0  0  0  0  0  0  0  0  0
   -6.7507    0.2675    0.0205 C   0  0  0  0  0  0  0  0  0  0  0  0
   -8.0510   -0.0863    0.7723 C   0  0  0  0  0  0  0  0  0  0  0  0
   -6.7171    1.7855   -0.2369 C   0  0  0  0  0  0  0  0  0  0  0  0
   -5.5348   -0.1283    0.8406 C   0  0  0  0  0  0  0  0  0  0  0  0
   -5.5853   -0.5988    2.1066 N   0  0  0  0  0  0  0  0  0  0  0  0
   -4.3436   -0.7977    2.5160 N   0  0  0  0  0  0  0  0  0  0  0  0
   -3.4931   -0.4642    1.5309 C   0  0  0  0  0  0  0  0  0  0  0  0
   -2.0650   -0.5108    1.6734 N   0  0  0  0  0  0  0  0  0  0  0  0
   -1.1338   -0.4319    0.5836 C   0  0  0  0  0  0  0  0  0  0  0  0
   -1.5340   -0.5471   -0.6062 O   0  0  0  0  0  0  0  0  0  0  0  0
    0.2683   -0.2964    0.8626 N   0  0  0  0  0  0  0  0  0  0  0  0
    1.2648   -0.0052   -0.1328 C   0  0  0  0  0  0  0  0  0  0  0  0
    0.9893    0.8420   -1.2188 C   0  0  0  0  0  0  0  0  0  0  0  0
    1.9831    1.1346   -2.1546 C   0  0  0  0  0  0  0  0  0  0  0  0
    3.2663    0.5954   -2.0183 C   0  0  0  0  0  0  0  0  0  0  0  0
    4.4846    1.0171   -3.2178 Cl  0  0  0  0  0  0  0  0  0  0  0  0
    3.5611   -0.2504   -0.9288 C   0  0  0  0  0  0  0  0  0  0  0  0
    4.9419   -0.8167   -0.7355 C   0  0  0  0  0  0  0  0  0  0  0  0
    5.8124    0.2140   -0.2768 O   0  0  0  0  0  0  0  0  0  0  0  0
    7.1801    0.0403   -0.0210 C   0  0  0  0  0  0  0  0  0  0  0  0
    7.8343   -1.1939   -0.1877 C   0  0  0  0  0  0  0  0  0  0  0  0
    9.1998   -1.3006    0.0836 C   0  0  0  0  0  0  0  0  0  0  0  0
    9.9012   -0.1752    0.5190 C   0  0  0  0  0  0  0  0  0  0  0  0
    9.2555    1.0105    0.6755 N   0  0  0  0  0  0  0  0  0  0  0  0
    7.9264    1.1397    0.4178 C   0  0  0  0  0  0  0  0  0  0  0  0
    2.5582   -0.5267    0.0166 C   0  0  0  0  0  0  0  0  0  0  0  0
   -4.2110   -0.0162    0.4385 C   0  0  0  0  0  0  0  0  0  0  0  0
   -6.7247   -1.5844   -1.1539 H   0  0  0  0  0  0  0  0  0  0  0  0
   -5.8334   -0.2178   -1.9187 H   0  0  0  0  0  0  0  0  0  0  0  0
   -7.6306   -0.2314   -1.9278 H   0  0  0  0  0  0  0  0  0  0  0  0
   -8.1006   -1.1781    0.9760 H   0  0  0  0  0  0  0  0  0  0  0  0
   -8.1046    0.4555    1.7415 H   0  0  0  0  0  0  0  0  0  0  0  0
   -8.9422    0.1951    0.1705 H   0  0  0  0  0  0  0  0  0  0  0  0
   -5.8083    2.0700   -0.8098 H   0  0  0  0  0  0  0  0  0  0  0  0
   -7.6071    2.1038   -0.8219 H   0  0  0  0  0  0  0  0  0  0  0  0
   -6.7120    2.3433    0.7247 H   0  0  0  0  0  0  0  0  0  0  0  0
   -4.0869   -1.1516    3.4640 H   0  0  0  0  0  0  0  0  0  0  0  0
   -1.6815   -0.6334    2.6372 H   0  0  0  0  0  0  0  0  0  0  0  0
    0.5910   -0.4989    1.8358 H   0  0  0  0  0  0  0  0  0  0  0  0
    0.0171    1.3032   -1.3299 H   0  0  0  0  0  0  0  0  0  0  0  0
    1.7568    1.7941   -2.9829 H   0  0  0  0  0  0  0  0  0  0  0  0
    5.3140   -1.2283   -1.6984 H   0  0  0  0  0  0  0  0  0  0  0  0
    4.9259   -1.6458    0.0054 H   0  0  0  0  0  0  0  0  0  0  0  0
    7.2995   -2.0715   -0.5241 H   0  0  0  0  0  0  0  0  0  0  0  0
    9.7098   -2.2469   -0.0423 H   0  0  0  0  0  0  0  0  0  0  0  0
   10.9595   -0.2441    0.7328 H   0  0  0  0  0  0  0  0  0  0  0  0
    7.4474    2.1004    0.5539 H   0  0  0  0  0  0  0  0  0  0  0  0
    2.7781   -1.1588    0.8688 H   0  0  0  0  0  0  0  0  0  0  0  0
   -3.8422    0.3733   -0.4998 H   0  0  0  0  0  0  0  0  0  0  0  0
  1  2  1  0
  2  3  1  0
  2  4  1  0
  2  5  1  0
  5  6  2  0
  6  7  1  0
  7  8  1  0
  8  9  1  0
  9 10  1  0
 10 11  2  0
 10 12  1  0
 12 13  1  0
 13 14  2  0
 14 15  1  0
 15 16  2  0
 16 17  1  0
 16 18  1  0
 18 19  1  0
 19 20  1  0
 20 21  1  0
 21 22  2  0
 22 23  1  0
 23 24  2  0
 24 25  1  0
 25 26  2  0
 18 27  2  0
  8 28  2  0
 28  5  1  0
 27 13  1  0
 26 21  1  0
  1 29  1  0
  1 30  1  0
  1 31  1  0
  3 32  1  0
  3 33  1  0
  3 34  1  0
  4 35  1  0
  4 36  1  0
  4 37  1  0
  7 38  1  0
  9 39  1  0
 12 40  1  0
 14 41  1  0
 15 42  1  0
 19 43  1  0
 19 44  1  0
 22 45  1  0
 23 46  1  0
 24 47  1  0
 26 48  1  0
 27 49  1  0
 28 50  1  0
M  END
$$$$
