
     RDKit          3D

 30 32  0  0  0  0  0  0  0  0999 V2000
   -0.6677    2.9468    1.3474 N   0  0  0  0  0  0  0  0  0  0  0  0
    0.4125    2.2416    0.7290 C   0  0  0  0  0  0  0  0  0  0  0  0
    1.5541    2.7764    0.7082 O   0  0  0  0  0  0  0  0  0  0  0  0
    0.2206    0.9229    0.1723 N   0  0  0  0  0  0  0  0  0  0  0  0
    1.3376    0.1393   -0.2658 C   0  0  0  0  0  0  0  0  0  0  0  0
    2.1826    0.6340   -1.2735 C   0  0  0  0  0  0  0  0  0  0  0  0
    3.2849   -0.1086   -1.6993 C   0  0  0  0  0  0  0  0  0  0  0  0
    3.5548   -1.3490   -1.1217 C   0  0  0  0  0  0  0  0  0  0  0  0
    2.7171   -1.8536   -0.1243 C   0  0  0  0  0  0  0  0  0  0  0  0
    1.5898   -1.1285    0.2988 C   0  0  0  0  0  0  0  0  0  0  0  0
    0.7621   -1.6952    1.3888 C   0  0  0  0  0  0  0  0  0  0  0  0
   -0.5666   -1.5661    1.5198 C   0  0  0  0  0  0  0  0  0  0  0  0
   -1.4656   -0.8296    0.6015 C   0  0  0  0  0  0  0  0  0  0  0  0
   -2.7723   -1.3142    0.4193 C   0  0  0  0  0  0  0  0  0  0  0  0
   -3.6750   -0.6354   -0.4027 C   0  0  0  0  0  0  0  0  0  0  0  0
   -3.2889    0.5430   -1.0413 C   0  0  0  0  0  0  0  0  0  0  0  0
   -2.0020    1.0489   -0.8523 C   0  0  0  0  0  0  0  0  0  0  0  0
   -1.0888    0.3773   -0.0230 C   0  0  0  0  0  0  0  0  0  0  0  0
   -0.5160    3.9106    1.7190 H   0  0  0  0  0  0  0  0  0  0  0  0
   -1.6011    2.5036    1.4914 H   0  0  0  0  0  0  0  0  0  0  0  0
    1.9818    1.5949   -1.7302 H   0  0  0  0  0  0  0  0  0  0  0  0
    3.9323    0.2797   -2.4749 H   0  0  0  0  0  0  0  0  0  0  0  0
    4.4143   -1.9210   -1.4468 H   0  0  0  0  0  0  0  0  0  0  0  0
    2.9445   -2.8183    0.3133 H   0  0  0  0  0  0  0  0  0  0  0  0
    1.2601   -2.3540    2.0911 H   0  0  0  0  0  0  0  0  0  0  0  0
   -1.0358   -2.1308    2.3175 H   0  0  0  0  0  0  0  0  0  0  0  0
   -3.0921   -2.2261    0.9093 H   0  0  0  0  0  0  0  0  0  0  0  0
   -4.6757   -1.0232   -0.5432 H   0  0  0  0  0  0  0  0  0  0  0  0
   -3.9886    1.0674   -1.6792 H   0  0  0  0  0  0  0  0  0  0  0  0
   -1.7128    1.9671   -1.3482 H   0  0  0  0  0  0  0  0  0  0  0  0
  1  2  1  0
  2  3  2  0
  2  4  1  0
  4  5  1  0
  5  6  2  0
  6  7  1  0
  7  8  2  0
  8  9  1  0
  9 10  2  0
 10 11  1  0
 11 12  2  0
 12 13  1  0
 13 14  2  0
 14 15  1  0
 15 16  2  0
 16 17  1  0
 17 18  2  0
 18  4  1  0
 10  5  1  0
 18 13  1  0
  1 19  1  0
  1 20  1  0
  6 21  1  0
  7 22  1  0
  8 23  1  0
  9 24  1  0
 11 25  1  0
 12 26  1  0
 14 27  1  0
 15 28  1  0
 16 29  1  0
 17 30  1  0
M  END
$$$$
