
     RDKit          3D

 45 48  0  0  0  0  0  0  0  0999 V2000
   -0.2514    2.3999   -1.0619 C   0  0  0  0  0  0  0  0  0  0  0  0
   -0.1091    0.8891   -1.2640 C   0  0  0  0  0  0  0  0  0  0  0  0
   -0.9621    0.3752   -2.4299 C   0  0  0  0  0  0  0  0  0  0  0  0
   -0.3895    0.1595   -0.0154 N   0  0  0  0  0  0  0  0  0  0  0  0
   -1.5694   -0.1238    0.6171 C   0  0  0  0  0  0  0  0  0  0  0  0
   -2.8551    0.3231    0.1605 N   0  0  0  0  0  0  0  0  0  0  0  0
   -4.0836   -0.3449    0.4967 C   0  0  0  0  0  0  0  0  0  0  0  0
   -4.1255   -1.7404    0.6788 C   0  0  0  0  0  0  0  0  0  0  0  0
   -5.3322   -2.3774    0.9827 C   0  0  0  0  0  0  0  0  0  0  0  0
   -6.5082   -1.6328    1.0967 C   0  0  0  0  0  0  0  0  0  0  0  0
   -6.4811   -0.2502    0.9000 C   0  0  0  0  0  0  0  0  0  0  0  0
   -5.2770    0.3932    0.5948 C   0  0  0  0  0  0  0  0  0  0  0  0
   -5.2715    1.7374    0.4100 F   0  0  0  0  0  0  0  0  0  0  0  0
   -1.4166   -0.8305    1.7731 N   0  0  0  0  0  0  0  0  0  0  0  0
   -0.0850   -0.9856    1.8474 C   0  0  0  0  0  0  0  0  0  0  0  0
    0.6681   -1.6238    2.8202 C   0  0  0  0  0  0  0  0  0  0  0  0
    2.0256   -1.6284    2.6688 N   0  0  0  0  0  0  0  0  0  0  0  0
    2.6304   -1.0197    1.5977 C   0  0  0  0  0  0  0  0  0  0  0  0
    4.0242   -1.0672    1.4835 O   0  0  0  0  0  0  0  0  0  0  0  0
    4.7761   -0.2684    0.6106 C   0  0  0  0  0  0  0  0  0  0  0  0
    5.8441   -0.8525   -0.0850 C   0  0  0  0  0  0  0  0  0  0  0  0
    6.1241   -2.1692    0.0819 F   0  0  0  0  0  0  0  0  0  0  0  0
    6.6152   -0.0881   -0.9665 C   0  0  0  0  0  0  0  0  0  0  0  0
    6.3341    1.2682   -1.1477 C   0  0  0  0  0  0  0  0  0  0  0  0
    5.2888    1.8658   -0.4392 C   0  0  0  0  0  0  0  0  0  0  0  0
    4.5134    1.1070    0.4440 C   0  0  0  0  0  0  0  0  0  0  0  0
    3.5493    1.7251    1.1710 F   0  0  0  0  0  0  0  0  0  0  0  0
    1.8694   -0.4021    0.6404 N   0  0  0  0  0  0  0  0  0  0  0  0
    0.5235   -0.3983    0.7940 C   0  0  0  0  0  0  0  0  0  0  0  0
    0.3992    2.7281   -0.2236 H   0  0  0  0  0  0  0  0  0  0  0  0
    0.0674    2.9362   -1.9810 H   0  0  0  0  0  0  0  0  0  0  0  0
   -1.2959    2.6871   -0.8329 H   0  0  0  0  0  0  0  0  0  0  0  0
    0.9502    0.7046   -1.5521 H   0  0  0  0  0  0  0  0  0  0  0  0
   -0.5696    0.7794   -3.3873 H   0  0  0  0  0  0  0  0  0  0  0  0
   -0.9132   -0.7335   -2.4742 H   0  0  0  0  0  0  0  0  0  0  0  0
   -2.0210    0.6862   -2.3397 H   0  0  0  0  0  0  0  0  0  0  0  0
   -2.9162    1.2355   -0.3381 H   0  0  0  0  0  0  0  0  0  0  0  0
   -3.2320   -2.3403    0.5657 H   0  0  0  0  0  0  0  0  0  0  0  0
   -5.3567   -3.4505    1.1225 H   0  0  0  0  0  0  0  0  0  0  0  0
   -7.4417   -2.1280    1.3309 H   0  0  0  0  0  0  0  0  0  0  0  0
   -7.3954    0.3234    0.9831 H   0  0  0  0  0  0  0  0  0  0  0  0
    0.2035   -2.1021    3.6720 H   0  0  0  0  0  0  0  0  0  0  0  0
    7.4317   -0.5466   -1.5093 H   0  0  0  0  0  0  0  0  0  0  0  0
    6.9333    1.8587   -1.8286 H   0  0  0  0  0  0  0  0  0  0  0  0
    5.0874    2.9219   -0.5657 H   0  0  0  0  0  0  0  0  0  0  0  0
  1  2  1  0
  2  3  1  0
  2  4  1  0
  4  5  1  0
  5  6  1  0
  6  7  1  0
  7  8  2  0
  8  9  1  0
  9 10  2  0
 10 11  1  0
 11 12  2  0
 12 13  1  0
  5 14  2  0
 14 15  1  0
 15 16  2  0
 16 17  1  0
 17 18  2  0
 18 19  1  0
 19 20  1  0
 20 21  2  0
 21 22  1  0
 21 23  1  0
 23 24  2  0
 24 25  1  0
 25 26  2  0
 26 27  1  0
 18 28  1  0
 28 29  2  0
 29  4  1  0
 12  7  1  0
 29 15  1  0
 26 20  1  0
  1 30  1  0
  1 31  1  0
  1 32  1  0
  2 33  1  0
  3 34  1  0
  3 35  1  0
  3 36  1  0
  6 37  1  0
  8 38  1  0
  9 39  1  0
 10 40  1  0
 11 41  1  0
 16 42  1  0
 23 43  1  0
 24 44  1  0
 25 45  1  0
M  END
$$$$
