
     RDKit          3D

128133  0  0  0  0  0  0  0  0999 V2000
    6.9664   -5.0083   -1.0605 C   0  0  0  0  0  0  0  0  0  0  0  0
    6.6645   -3.5345   -0.9651 C   0  0  0  0  0  0  0  0  0  0  0  0
    7.7575   -2.5348   -1.2520 C   0  0  0  0  0  0  0  0  0  0  0  0
    5.4193   -3.1570   -0.5993 C   0  0  0  0  0  0  0  0  0  0  0  0
    4.9434   -1.7267   -0.4717 C   0  0  0  0  0  0  0  0  0  0  0  0
    4.4838   -1.1700   -1.8427 C   0  0  0  0  0  0  0  0  0  0  0  0
    3.5803    0.1269   -1.8922 C   0  0  2  0  0  0  0  0  0  0  0  0
    2.8674    0.0881   -3.2690 C   0  0  0  0  0  0  0  0  0  0  0  0
    4.4149    1.2886   -1.9920 O   0  0  0  0  0  0  0  0  0  0  0  0
    5.1324    1.6686   -0.8275 C   0  0  2  0  0  0  0  0  0  0  0  0
    4.6252    2.9114   -0.3798 O   0  0  0  0  0  0  0  0  0  0  0  0
    5.1068    3.2098    0.9241 C   0  0  2  0  0  0  0  0  0  0  0  0
    4.6544    4.6265    1.2935 C   0  0  0  0  0  0  0  0  0  0  0  0
    3.2570    4.7085    1.2353 O   0  0  0  0  0  0  0  0  0  0  0  0
    6.6620    3.0780    1.0265 C   0  0  1  0  0  0  0  0  0  0  0  0
    6.9992    1.9281    1.7606 O   0  0  0  0  0  0  0  0  0  0  0  0
    7.2924    2.9779   -0.3730 C   0  0  2  0  0  0  0  0  0  0  0  0
    7.1436    4.2126   -1.0286 O   0  0  0  0  0  0  0  0  0  0  0  0
    6.6240    1.8508   -1.2063 C   0  0  1  0  0  0  0  0  0  0  0  0
    7.3068    0.6424   -1.0065 O   0  0  0  0  0  0  0  0  0  0  0  0
    2.4879    0.2749   -0.7305 C   0  0  1  0  0  0  0  0  0  0  0  0
    1.9118    1.7221   -0.6584 C   0  0  0  0  0  0  0  0  0  0  0  0
    0.3850    1.6175   -0.5523 C   0  0  0  0  0  0  0  0  0  0  0  0
    0.1170    0.2074    0.0059 C   0  0  2  0  0  0  0  0  0  0  0  0
    0.4601    0.2875    1.5479 C   0  0  0  0  0  0  0  0  0  0  0  0
    1.1914   -0.6025   -0.7746 C   0  0  2  0  0  0  0  0  0  0  0  0
    1.2146   -2.0767   -0.3135 C   0  0  2  0  0  0  0  0  0  0  0  0
    2.1405   -2.8011   -1.0707 O   0  0  0  0  0  0  0  0  0  0  0  0
   -0.1835   -2.7072   -0.5438 C   0  0  0  0  0  0  0  0  0  0  0  0
   -1.3331   -1.9268    0.1659 C   0  0  2  0  0  0  0  0  0  0  0  0
   -2.7349   -2.6831    0.2281 C   0  0  1  0  0  0  0  0  0  0  0  0
   -3.2840   -2.9758   -1.2073 C   0  0  0  0  0  0  0  0  0  0  0  0
   -2.5014   -4.0655    0.9596 C   0  0  0  0  0  0  0  0  0  0  0  0
   -3.6062   -4.5134    1.9286 C   0  0  0  0  0  0  0  0  0  0  0  0
   -5.0063   -4.0873    1.4825 C   0  0  2  0  0  0  0  0  0  0  0  0
   -5.3289   -4.6899    0.2539 O   0  0  0  0  0  0  0  0  0  0  0  0
   -5.1411   -2.5195    1.4293 C   0  0  0  0  0  0  0  0  0  0  0  0
   -5.6171   -2.0733    2.8458 C   0  0  0  0  0  0  0  0  0  0  0  0
   -6.2743   -2.1429    0.4395 C   0  0  0  0  0  0  0  0  0  0  0  0
   -3.7440   -1.8081    1.0906 C   0  0  2  0  0  0  0  0  0  0  0  0
   -3.8328   -0.3185    0.5887 C   0  0  2  0  0  0  0  0  0  0  0  0
   -2.4194    0.3224    0.6088 C   0  0  0  0  0  0  0  0  0  0  0  0
   -1.3548   -0.4046   -0.2601 C   0  0  1  0  0  0  0  0  0  0  0  0
   -1.7723   -0.2172   -1.7605 C   0  0  0  0  0  0  0  0  0  0  0  0
   -4.6622    0.4392    1.4633 O   0  0  0  0  0  0  0  0  0  0  0  0
   -5.3794    1.4694    0.7942 C   0  0  2  0  0  0  0  0  0  0  0  0
   -4.5013    2.5416    0.5011 O   0  0  0  0  0  0  0  0  0  0  0  0
   -5.1500    3.5307   -0.2776 C   0  0  2  0  0  0  0  0  0  0  0  0
   -4.0865    4.5488   -0.7216 C   0  0  0  0  0  0  0  0  0  0  0  0
   -4.6114    5.4643   -1.6452 O   0  0  0  0  0  0  0  0  0  0  0  0
   -6.2681    4.2022    0.5539 C   0  0  1  0  0  0  0  0  0  0  0  0
   -6.9559    5.1373   -0.2375 O   0  0  0  0  0  0  0  0  0  0  0  0
   -7.2542    3.1335    1.0593 C   0  0  2  0  0  0  0  0  0  0  0  0
   -8.1394    3.7204    1.9788 O   0  0  0  0  0  0  0  0  0  0  0  0
   -6.4948    1.9715    1.7289 C   0  0  1  0  0  0  0  0  0  0  0  0
   -7.3840    0.9199    2.0034 O   0  0  0  0  0  0  0  0  0  0  0  0
    6.2997   -5.4792   -1.8136 H   0  0  0  0  0  0  0  0  0  0  0  0
    6.7977   -5.4909   -0.0744 H   0  0  0  0  0  0  0  0  0  0  0  0
    8.0176   -5.1958   -1.3631 H   0  0  0  0  0  0  0  0  0  0  0  0
    7.9477   -1.9129   -0.3530 H   0  0  0  0  0  0  0  0  0  0  0  0
    8.7099   -3.0391   -1.5164 H   0  0  0  0  0  0  0  0  0  0  0  0
    7.4739   -1.8906   -2.1074 H   0  0  0  0  0  0  0  0  0  0  0  0
    4.6923   -3.9324   -0.3720 H   0  0  0  0  0  0  0  0  0  0  0  0
    5.7450   -1.1167   -0.0193 H   0  0  0  0  0  0  0  0  0  0  0  0
    4.1044   -1.7462    0.2467 H   0  0  0  0  0  0  0  0  0  0  0  0
    3.9811   -1.9980   -2.3853 H   0  0  0  0  0  0  0  0  0  0  0  0
    5.3911   -0.9682   -2.4496 H   0  0  0  0  0  0  0  0  0  0  0  0
    3.6146    0.1855   -4.0868 H   0  0  0  0  0  0  0  0  0  0  0  0
    2.1471    0.9253   -3.3781 H   0  0  0  0  0  0  0  0  0  0  0  0
    2.3292   -0.8671   -3.4442 H   0  0  0  0  0  0  0  0  0  0  0  0
    5.0458    0.9198   -0.0148 H   0  0  0  0  0  0  0  0  0  0  0  0
    4.6221    2.5217    1.6557 H   0  0  0  0  0  0  0  0  0  0  0  0
    4.9944    4.8683    2.3259 H   0  0  0  0  0  0  0  0  0  0  0  0
    5.1022    5.3587    0.5845 H   0  0  0  0  0  0  0  0  0  0  0  0
    3.0258    5.6437    1.4736 H   0  0  0  0  0  0  0  0  0  0  0  0
    7.1088    3.9659    1.5346 H   0  0  0  0  0  0  0  0  0  0  0  0
    6.8157    2.1340    2.7145 H   0  0  0  0  0  0  0  0  0  0  0  0
    8.3810    2.7645   -0.2497 H   0  0  0  0  0  0  0  0  0  0  0  0
    7.8045    4.2270   -1.7696 H   0  0  0  0  0  0  0  0  0  0  0  0
    6.6843    2.1266   -2.2867 H   0  0  0  0  0  0  0  0  0  0  0  0
    8.1439    0.6914   -1.5383 H   0  0  0  0  0  0  0  0  0  0  0  0
    2.9879    0.0859    0.2358 H   0  0  0  0  0  0  0  0  0  0  0  0
    2.2932    2.2364    0.2489 H   0  0  0  0  0  0  0  0  0  0  0  0
    2.1780    2.3483   -1.5363 H   0  0  0  0  0  0  0  0  0  0  0  0
   -0.0380    2.4229    0.0876 H   0  0  0  0  0  0  0  0  0  0  0  0
   -0.0082    1.7553   -1.5762 H   0  0  0  0  0  0  0  0  0  0  0  0
    0.3263   -0.6533    2.1055 H   0  0  0  0  0  0  0  0  0  0  0  0
    1.5066    0.5816    1.7470 H   0  0  0  0  0  0  0  0  0  0  0  0
   -0.1371    1.0747    2.0513 H   0  0  0  0  0  0  0  0  0  0  0  0
    0.8874   -0.6298   -1.8308 H   0  0  0  0  0  0  0  0  0  0  0  0
    1.4925   -2.1350    0.7627 H   0  0  0  0  0  0  0  0  0  0  0  0
    2.2713   -3.6710   -0.6102 H   0  0  0  0  0  0  0  0  0  0  0  0
   -0.1413   -3.7543   -0.1825 H   0  0  0  0  0  0  0  0  0  0  0  0
   -0.3604   -2.7620   -1.6362 H   0  0  0  0  0  0  0  0  0  0  0  0
   -1.0340   -1.9297    1.2276 H   0  0  0  0  0  0  0  0  0  0  0  0
   -2.4916   -2.9673   -1.9759 H   0  0  0  0  0  0  0  0  0  0  0  0
   -4.0549   -2.2588   -1.5301 H   0  0  0  0  0  0  0  0  0  0  0  0
   -3.7390   -3.9770   -1.3044 H   0  0  0  0  0  0  0  0  0  0  0  0
   -2.3253   -4.8769    0.2189 H   0  0  0  0  0  0  0  0  0  0  0  0
   -1.5755   -4.0461    1.5746 H   0  0  0  0  0  0  0  0  0  0  0  0
   -3.4026   -4.0917    2.9371 H   0  0  0  0  0  0  0  0  0  0  0  0
   -3.5699   -5.6196    2.0372 H   0  0  0  0  0  0  0  0  0  0  0  0
   -5.7211   -4.4933    2.2384 H   0  0  0  0  0  0  0  0  0  0  0  0
   -5.4533   -5.6606    0.4240 H   0  0  0  0  0  0  0  0  0  0  0  0
   -5.8047   -0.9888    2.9176 H   0  0  0  0  0  0  0  0  0  0  0  0
   -6.5754   -2.5675    3.1171 H   0  0  0  0  0  0  0  0  0  0  0  0
   -4.8698   -2.3392    3.6229 H   0  0  0  0  0  0  0  0  0  0  0  0
   -6.5225   -1.0687    0.4855 H   0  0  0  0  0  0  0  0  0  0  0  0
   -6.0213   -2.3946   -0.6058 H   0  0  0  0  0  0  0  0  0  0  0  0
   -7.2041   -2.6968    0.6943 H   0  0  0  0  0  0  0  0  0  0  0  0
   -3.2326   -1.7235    2.0777 H   0  0  0  0  0  0  0  0  0  0  0  0
   -4.2388   -0.3233   -0.4409 H   0  0  0  0  0  0  0  0  0  0  0  0
   -2.4597    1.3793    0.2830 H   0  0  0  0  0  0  0  0  0  0  0  0
   -2.1194    0.3339    1.6740 H   0  0  0  0  0  0  0  0  0  0  0  0
   -1.8508    0.8519   -2.0332 H   0  0  0  0  0  0  0  0  0  0  0  0
   -2.7751   -0.5888   -1.9887 H   0  0  0  0  0  0  0  0  0  0  0  0
   -1.1073   -0.7265   -2.4791 H   0  0  0  0  0  0  0  0  0  0  0  0
   -5.8611    1.0781   -0.1349 H   0  0  0  0  0  0  0  0  0  0  0  0
   -5.5832    3.0764   -1.2002 H   0  0  0  0  0  0  0  0  0  0  0  0
   -3.2205    4.0120   -1.1733 H   0  0  0  0  0  0  0  0  0  0  0  0
   -3.7046    5.1059    0.1606 H   0  0  0  0  0  0  0  0  0  0  0  0
   -4.6913    4.9824   -2.5095 H   0  0  0  0  0  0  0  0  0  0  0  0
   -5.8000    4.7106    1.4311 H   0  0  0  0  0  0  0  0  0  0  0  0
   -7.4036    5.7681    0.3849 H   0  0  0  0  0  0  0  0  0  0  0  0
   -7.8210    2.7392    0.1810 H   0  0  0  0  0  0  0  0  0  0  0  0
   -8.9657    3.1702    1.9773 H   0  0  0  0  0  0  0  0  0  0  0  0
   -6.0210    2.3341    2.6731 H   0  0  0  0  0  0  0  0  0  0  0  0
   -7.8055    1.1178    2.8801 H   0  0  0  0  0  0  0  0  0  0  0  0
  1  2  1  0
  2  3  1  0
  2  4  2  3
  4  5  1  0
  5  6  1  0
  6  7  1  0
  7  8  1  0
  7  9  1  6
  9 10  1  0
 10 11  1  0
 11 12  1  0
 12 13  1  0
 13 14  1  0
 12 15  1  0
 15 16  1  0
 15 17  1  0
 17 18  1  0
 17 19  1  0
 19 20  1  0
  7 21  1  0
 21 22  1  0
 22 23  1  0
 23 24  1  0
 24 25  1  1
 24 26  1  0
 26 27  1  0
 27 28  1  0
 27 29  1  0
 29 30  1  0
 30 31  1  0
 31 32  1  6
 31 33  1  0
 33 34  1  0
 34 35  1  0
 35 36  1  0
 35 37  1  0
 37 38  1  0
 37 39  1  0
 37 40  1  0
 40 41  1  0
 41 42  1  0
 42 43  1  0
 43 44  1  6
 41 45  1  0
 45 46  1  0
 46 47  1  0
 47 48  1  0
 48 49  1  0
 49 50  1  0
 48 51  1  0
 51 52  1  0
 51 53  1  0
 53 54  1  0
 53 55  1  0
 55 56  1  0
 19 10  1  0
 26 21  1  0
 43 30  1  0
 55 46  1  0
 43 24  1  0
 40 31  1  0
  1 57  1  0
  1 58  1  0
  1 59  1  0
  3 60  1  0
  3 61  1  0
  3 62  1  0
  4 63  1  0
  5 64  1  0
  5 65  1  0
  6 66  1  0
  6 67  1  0
  8 68  1  0
  8 69  1  0
  8 70  1  0
 10 71  1  1
 12 72  1  1
 13 73  1  0
 13 74  1  0
 14 75  1  0
 15 76  1  1
 16 77  1  0
 17 78  1  1
 18 79  1  0
 19 80  1  6
 20 81  1  0
 21 82  1  1
 22 83  1  0
 22 84  1  0
 23 85  1  0
 23 86  1  0
 25 87  1  0
 25 88  1  0
 25 89  1  0
 26 90  1  6
 27 91  1  1
 28 92  1  0
 29 93  1  0
 29 94  1  0
 30 95  1  1
 32 96  1  0
 32 97  1  0
 32 98  1  0
 33 99  1  0
 33100  1  0
 34101  1  0
 34102  1  0
 35103  1  1
 36104  1  0
 38105  1  0
 38106  1  0
 38107  1  0
 39108  1  0
 39109  1  0
 39110  1  0
 40111  1  1
 41112  1  6
 42113  1  0
 42114  1  0
 44115  1  0
 44116  1  0
 44117  1  0
 46118  1  6
 48119  1  6
 49120  1  0
 49121  1  0
 50122  1  0
 51123  1  1
 52124  1  0
 53125  1  6
 54126  1  0
 55127  1  1
 56128  1  0
M  END
$$$$
