
     RDKit          3D

 37 39  0  0  0  0  0  0  0  0999 V2000
   -6.4936   -0.8392    0.2590 N   0  0  0  0  0  0  0  0  0  0  0  0
   -5.4952   -0.8588    1.6703 S   0  0  0  0  0  6  0  0  0  0  0  0
   -6.0146    0.1819    2.6236 O   0  0  0  0  0  0  0  0  0  0  0  0
   -5.5811   -2.2028    2.3369 O   0  0  0  0  0  0  0  0  0  0  0  0
   -3.8047   -0.5074    1.2522 C   0  0  0  0  0  0  0  0  0  0  0  0
   -3.1278    0.4430    2.0325 C   0  0  0  0  0  0  0  0  0  0  0  0
   -1.8083    0.7940    1.7567 C   0  0  0  0  0  0  0  0  0  0  0  0
   -1.1268    0.2065    0.6836 C   0  0  0  0  0  0  0  0  0  0  0  0
   -1.7884   -0.7533   -0.0970 C   0  0  0  0  0  0  0  0  0  0  0  0
   -3.1144   -1.1472    0.1833 C   0  0  0  0  0  0  0  0  0  0  0  0
   -3.7703   -2.1777   -0.7204 C   0  0  0  0  0  0  0  0  0  0  0  0
   -2.8259   -2.9027   -1.4278 F   0  0  0  0  0  0  0  0  0  0  0  0
   -4.5906   -1.5368   -1.6292 F   0  0  0  0  0  0  0  0  0  0  0  0
   -4.5116   -3.0836    0.0128 F   0  0  0  0  0  0  0  0  0  0  0  0
    0.2718    0.5777    0.3595 C   0  0  0  0  0  0  0  0  0  0  0  0
    1.0592    1.5176    1.0057 C   0  0  0  0  0  0  0  0  0  0  0  0
    2.2701    1.5159    0.3479 C   0  0  0  0  0  0  0  0  0  0  0  0
    2.1556    0.5694   -0.6553 C   0  0  0  0  0  0  0  0  0  0  0  0
    0.9550    0.0395   -0.6265 O   0  0  0  0  0  0  0  0  0  0  0  0
    3.1600    0.2053   -1.6721 C   0  0  0  0  0  0  0  0  0  0  0  0
    4.4891    0.2140   -1.4821 C   0  0  0  0  0  0  0  0  0  0  0  0
    5.3129    0.5266    0.0943 S   0  0  0  0  0  0  0  0  0  0  0  0
    6.8681    0.1102   -0.7063 C   0  0  0  0  0  0  0  0  0  0  0  0
    7.9965    0.1102   -0.0759 N   0  0  0  0  0  0  0  0  0  0  0  0
    6.7854   -0.2249   -2.0833 N   0  0  0  0  0  0  0  0  0  0  0  0
    5.4422   -0.1716   -2.5240 C   0  0  0  0  0  0  0  0  0  0  0  0
    5.1170   -0.4410   -3.7113 O   0  0  0  0  0  0  0  0  0  0  0  0
   -6.4580    0.1311   -0.1265 H   0  0  0  0  0  0  0  0  0  0  0  0
   -7.4755   -1.0030    0.5756 H   0  0  0  0  0  0  0  0  0  0  0  0
   -3.6225    0.9251    2.8655 H   0  0  0  0  0  0  0  0  0  0  0  0
   -1.3315    1.5323    2.3861 H   0  0  0  0  0  0  0  0  0  0  0  0
   -1.2610   -1.1943   -0.9334 H   0  0  0  0  0  0  0  0  0  0  0  0
    0.7929    2.1495    1.8413 H   0  0  0  0  0  0  0  0  0  0  0  0
    3.1080    2.1661    0.5562 H   0  0  0  0  0  0  0  0  0  0  0  0
    2.7730   -0.1334   -2.6254 H   0  0  0  0  0  0  0  0  0  0  0  0
    8.0463    0.3572    0.9373 H   0  0  0  0  0  0  0  0  0  0  0  0
    7.5985   -0.4875   -2.6841 H   0  0  0  0  0  0  0  0  0  0  0  0
  1  2  1  0
  2  3  2  0
  2  4  2  0
  2  5  1  0
  5  6  2  0
  6  7  1  0
  7  8  2  0
  8  9  1  0
  9 10  2  0
 10 11  1  0
 11 12  1  0
 11 13  1  0
 11 14  1  0
  8 15  1  0
 15 16  2  0
 16 17  1  0
 17 18  2  0
 18 19  1  0
 18 20  1  0
 20 21  2  0
 21 22  1  0
 22 23  1  0
 23 24  2  3
 23 25  1  0
 25 26  1  0
 26 27  2  0
 10  5  1  0
 19 15  1  0
 26 21  1  0
  1 28  1  0
  1 29  1  0
  6 30  1  0
  7 31  1  0
  9 32  1  0
 16 33  1  0
 17 34  1  0
 20 35  1  0
 24 36  1  0
 25 37  1  0
M  END
$$$$
