
     RDKit          3D

 63 67  0  0  0  0  0  0  0  0999 V2000
    5.5027   -0.5896   -1.9391 C   0  0  0  0  0  0  0  0  0  0  0  0
    4.4661   -0.8051   -0.8368 C   0  0  2  0  0  0  0  0  0  0  0  0
    4.1261    0.4496   -0.2739 O   0  0  0  0  0  0  0  0  0  0  0  0
    2.9504    0.3570    0.5223 C   0  0  1  0  0  0  0  0  0  0  0  0
    1.8196    0.3142   -0.3378 O   0  0  0  0  0  0  0  0  0  0  0  0
    0.7392    1.0964    0.1339 C   0  0  1  0  0  0  0  0  0  0  0  0
    0.8312    2.5038   -0.4806 C   0  0  0  0  0  0  0  0  0  0  0  0
   -0.3586    3.4378   -0.0718 C   0  0  1  0  0  0  0  0  0  0  0  0
   -0.8975    4.0236   -1.2368 O   0  0  0  0  0  0  0  0  0  0  0  0
   -1.4941    2.6829    0.6837 C   0  0  0  0  0  0  0  0  0  0  0  0
   -1.7384    1.2990    0.1132 C   0  0  0  0  0  0  0  0  0  0  0  0
   -0.6246    0.4989   -0.2139 C   0  0  0  0  0  0  0  0  0  0  0  0
   -0.8375   -0.8228   -0.6897 C   0  0  0  0  0  0  0  0  0  0  0  0
    0.2224   -1.6274   -1.1132 O   0  0  0  0  0  0  0  0  0  0  0  0
   -2.1515   -1.3471   -0.7711 C   0  0  0  0  0  0  0  0  0  0  0  0
   -2.3921   -2.7674   -1.1767 C   0  0  0  0  0  0  0  0  0  0  0  0
   -1.4284   -3.5208   -1.4848 O   0  0  0  0  0  0  0  0  0  0  0  0
   -3.7653   -3.3188   -1.1986 C   0  0  0  0  0  0  0  0  0  0  0  0
   -3.9890   -4.6884   -1.4356 C   0  0  0  0  0  0  0  0  0  0  0  0
   -5.2895   -5.1968   -1.4678 C   0  0  0  0  0  0  0  0  0  0  0  0
   -6.3776   -4.3469   -1.2687 C   0  0  0  0  0  0  0  0  0  0  0  0
   -6.1687   -2.9859   -1.0363 C   0  0  0  0  0  0  0  0  0  0  0  0
   -4.8628   -2.4639   -0.9954 C   0  0  0  0  0  0  0  0  0  0  0  0
   -4.6325   -1.0230   -0.7710 C   0  0  0  0  0  0  0  0  0  0  0  0
   -5.5924   -0.2199   -0.9238 O   0  0  0  0  0  0  0  0  0  0  0  0
   -3.2607   -0.5196   -0.4735 C   0  0  0  0  0  0  0  0  0  0  0  0
   -3.0415    0.7797    0.0422 C   0  0  0  0  0  0  0  0  0  0  0  0
   -4.0893    1.5604    0.5430 O   0  0  0  0  0  0  0  0  0  0  0  0
    0.1595    4.5454    0.8377 C   0  0  0  0  0  0  0  0  0  0  0  0
    0.7244    4.2509    1.8820 O   0  0  0  0  0  0  0  0  0  0  0  0
   -0.0189    6.0030    0.4987 C   0  0  0  0  0  0  0  0  0  0  0  0
   -1.3787    6.3412    0.5078 O   0  0  0  0  0  0  0  0  0  0  0  0
    2.9564   -0.8875    1.4593 C   0  0  2  0  0  0  0  0  0  0  0  0
    2.0682   -0.4692    3.3731 I   0  0  0  0  0  0  0  0  0  0  0  0
    4.3813   -1.4303    1.6397 C   0  0  2  0  0  0  0  0  0  0  0  0
    5.1635   -0.4695    2.3045 O   0  0  0  0  0  0  0  0  0  0  0  0
    5.0072   -1.7585    0.2603 C   0  0  1  0  0  0  0  0  0  0  0  0
    4.7077   -3.0832   -0.1005 O   0  0  0  0  0  0  0  0  0  0  0  0
    6.4090   -0.0941   -1.5297 H   0  0  0  0  0  0  0  0  0  0  0  0
    5.7913   -1.5627   -2.3909 H   0  0  0  0  0  0  0  0  0  0  0  0
    5.0748    0.0563   -2.7350 H   0  0  0  0  0  0  0  0  0  0  0  0
    3.5733   -1.2635   -1.3255 H   0  0  0  0  0  0  0  0  0  0  0  0
    2.9644    1.2702    1.1613 H   0  0  0  0  0  0  0  0  0  0  0  0
    0.7538    1.1903    1.2441 H   0  0  0  0  0  0  0  0  0  0  0  0
    0.8598    2.3879   -1.5874 H   0  0  0  0  0  0  0  0  0  0  0  0
    1.8103    2.9572   -0.2091 H   0  0  0  0  0  0  0  0  0  0  0  0
   -1.2950    3.3003   -1.7897 H   0  0  0  0  0  0  0  0  0  0  0  0
   -1.2374    2.5532    1.7583 H   0  0  0  0  0  0  0  0  0  0  0  0
   -2.4117    3.3092    0.6476 H   0  0  0  0  0  0  0  0  0  0  0  0
    0.9625   -1.2863   -1.7111 H   0  0  0  0  0  0  0  0  0  0  0  0
   -3.1603   -5.3668   -1.5946 H   0  0  0  0  0  0  0  0  0  0  0  0
   -5.4537   -6.2513   -1.6490 H   0  0  0  0  0  0  0  0  0  0  0  0
   -7.3847   -4.7428   -1.2956 H   0  0  0  0  0  0  0  0  0  0  0  0
   -7.0269   -2.3433   -0.8839 H   0  0  0  0  0  0  0  0  0  0  0  0
   -4.9813    1.1833    0.8318 H   0  0  0  0  0  0  0  0  0  0  0  0
    0.5402    6.6448    1.2176 H   0  0  0  0  0  0  0  0  0  0  0  0
    0.3972    6.1988   -0.5116 H   0  0  0  0  0  0  0  0  0  0  0  0
   -1.6578    6.3663    1.4604 H   0  0  0  0  0  0  0  0  0  0  0  0
    2.3378   -1.6930    1.0042 H   0  0  0  0  0  0  0  0  0  0  0  0
    4.3274   -2.3556    2.2609 H   0  0  0  0  0  0  0  0  0  0  0  0
    5.9498   -0.9474    2.6779 H   0  0  0  0  0  0  0  0  0  0  0  0
    6.1150   -1.6433    0.3402 H   0  0  0  0  0  0  0  0  0  0  0  0
    5.3058   -3.6698    0.4326 H   0  0  0  0  0  0  0  0  0  0  0  0
  1  2  1  0
  2  3  1  0
  3  4  1  0
  4  5  1  0
  5  6  1  0
  6  7  1  0
  7  8  1  0
  8  9  1  6
  8 10  1  0
 10 11  1  0
 11 12  2  0
 12 13  1  0
 13 14  1  0
 13 15  2  0
 15 16  1  0
 16 17  2  0
 16 18  1  0
 18 19  2  0
 19 20  1  0
 20 21  2  0
 21 22  1  0
 22 23  2  0
 23 24  1  0
 24 25  2  0
 24 26  1  0
 26 27  2  0
 27 28  1  0
  8 29  1  0
 29 30  2  0
 29 31  1  0
 31 32  1  0
  4 33  1  0
 33 34  1  0
 33 35  1  0
 35 36  1  0
 35 37  1  0
 37 38  1  0
 37  2  1  0
 12  6  1  0
 26 15  1  0
 27 11  1  0
 23 18  1  0
  1 39  1  0
  1 40  1  0
  1 41  1  0
  2 42  1  6
  4 43  1  1
  6 44  1  1
  7 45  1  0
  7 46  1  0
  9 47  1  0
 10 48  1  0
 10 49  1  0
 14 50  1  0
 19 51  1  0
 20 52  1  0
 21 53  1  0
 22 54  1  0
 28 55  1  0
 31 56  1  0
 31 57  1  0
 32 58  1  0
 33 59  1  6
 35 60  1  1
 36 61  1  0
 37 62  1  1
 38 63  1  0
M  END
$$$$
