
     RDKit          3D

 35 35  0  0  0  0  0  0  0  0999 V2000
   -2.2935    2.1161   -1.1251 C   0  0  0  0  0  0  0  0  0  0  0  0
   -2.0142    1.0186   -0.0730 C   0  0  0  0  0  0  0  0  0  0  0  0
   -2.8794    1.2440    1.1722 C   0  0  0  0  0  0  0  0  0  0  0  0
   -0.5716    1.0633    0.3028 C   0  0  0  0  0  0  0  0  0  0  0  0
    0.0498   -0.0412   -0.0721 C   0  0  0  0  0  0  0  0  0  0  0  0
    1.5233   -0.2684    0.1324 C   0  0  0  0  0  0  0  0  0  0  0  0
    1.8730   -0.4595    1.9116 S   0  0  0  0  0  0  0  0  0  0  0  0
    3.9422   -0.7188    1.6653 S   0  0  0  0  0  6  0  0  0  0  0  0
    4.7086    0.8172    1.1964 C   0  0  0  0  0  0  0  0  0  0  0  0
    4.5254   -1.1731    2.9732 O   0  0  0  0  0  0  0  0  0  0  0  0
    4.2130   -1.7670    0.6230 O   0  0  0  0  0  0  0  0  0  0  0  0
   -0.8980   -0.9756   -0.7675 C   0  0  0  0  0  0  0  0  0  0  0  0
   -0.4961   -1.1119   -2.2565 C   0  0  0  0  0  0  0  0  0  0  0  0
   -0.8905   -2.3516   -0.0870 C   0  0  0  0  0  0  0  0  0  0  0  0
   -2.2354   -0.3609   -0.5716 N   0  0  0  0  0  0  0  0  0  0  0  0
   -2.9828   -0.3798   -1.7089 O   0  0  0  0  0  0  0  0  0  0  0  0
   -3.3688    2.1282   -1.4047 H   0  0  0  0  0  0  0  0  0  0  0  0
   -2.0339    3.1177   -0.7187 H   0  0  0  0  0  0  0  0  0  0  0  0
   -1.6881    1.9457   -2.0409 H   0  0  0  0  0  0  0  0  0  0  0  0
   -2.6859    2.2475    1.6096 H   0  0  0  0  0  0  0  0  0  0  0  0
   -2.6584    0.4732    1.9423 H   0  0  0  0  0  0  0  0  0  0  0  0
   -3.9560    1.1728    0.9071 H   0  0  0  0  0  0  0  0  0  0  0  0
   -0.0832    1.9019    0.7914 H   0  0  0  0  0  0  0  0  0  0  0  0
    2.0848    0.5964   -0.2774 H   0  0  0  0  0  0  0  0  0  0  0  0
    1.8463   -1.1845   -0.4015 H   0  0  0  0  0  0  0  0  0  0  0  0
    4.3971    1.6167    1.8997 H   0  0  0  0  0  0  0  0  0  0  0  0
    4.4043    1.0923    0.1663 H   0  0  0  0  0  0  0  0  0  0  0  0
    5.8119    0.7061    1.2310 H   0  0  0  0  0  0  0  0  0  0  0  0
   -1.1894   -1.7975   -2.7893 H   0  0  0  0  0  0  0  0  0  0  0  0
    0.5278   -1.5306   -2.3536 H   0  0  0  0  0  0  0  0  0  0  0  0
   -0.5153   -0.1219   -2.7597 H   0  0  0  0  0  0  0  0  0  0  0  0
   -1.1239   -2.2494    0.9950 H   0  0  0  0  0  0  0  0  0  0  0  0
   -1.6589   -3.0081   -0.5484 H   0  0  0  0  0  0  0  0  0  0  0  0
    0.0993   -2.8449   -0.1908 H   0  0  0  0  0  0  0  0  0  0  0  0
   -3.7837   -0.9130   -1.4725 H   0  0  0  0  0  0  0  0  0  0  0  0
  1  2  1  0
  2  3  1  0
  2  4  1  0
  4  5  2  0
  5  6  1  0
  6  7  1  0
  7  8  1  0
  8  9  1  0
  8 10  2  0
  8 11  2  0
  5 12  1  0
 12 13  1  0
 12 14  1  0
 12 15  1  0
 15 16  1  0
 15  2  1  0
  1 17  1  0
  1 18  1  0
  1 19  1  0
  3 20  1  0
  3 21  1  0
  3 22  1  0
  4 23  1  0
  6 24  1  0
  6 25  1  0
  9 26  1  0
  9 27  1  0
  9 28  1  0
 13 29  1  0
 13 30  1  0
 13 31  1  0
 14 32  1  0
 14 33  1  0
 14 34  1  0
 16 35  1  0
M  END
$$$$
