
     RDKit          3D

 42 44  0  0  0  0  0  0  0  0999 V2000
   -8.0399    0.9496    0.3477 N   0  0  0  0  0  0  0  0  0  0  0  0
   -7.4667   -0.3899    0.2751 C   0  0  0  0  0  0  0  0  0  0  0  0
   -5.9830   -0.3011    0.0477 C   0  0  0  0  0  0  0  0  0  0  0  0
   -5.0990   -0.2804    1.1371 C   0  0  0  0  0  0  0  0  0  0  0  0
   -3.7217   -0.1640    0.9269 C   0  0  0  0  0  0  0  0  0  0  0  0
   -3.2075   -0.0703   -0.3785 C   0  0  0  0  0  0  0  0  0  0  0  0
   -1.7981    0.0782   -0.6214 N   0  0  0  0  0  0  0  0  0  0  0  0
   -0.7782   -0.6082    0.1295 C   0  0  0  0  0  0  0  0  0  0  0  0
   -1.1041   -1.4645    0.9965 O   0  0  0  0  0  0  0  0  0  0  0  0
    0.6611   -0.3352   -0.1013 C   0  0  0  0  0  0  0  0  0  0  0  0
    1.1392    0.0445   -1.3686 C   0  0  0  0  0  0  0  0  0  0  0  0
    2.4993    0.2933   -1.5707 C   0  0  0  0  0  0  0  0  0  0  0  0
    3.4084    0.1603   -0.5124 C   0  0  0  0  0  0  0  0  0  0  0  0
    4.7756    0.4091   -0.7085 C   0  0  0  0  0  0  0  0  0  0  0  0
    5.6904    0.2644    0.3517 C   0  0  0  0  0  0  0  0  0  0  0  0
    5.2113   -0.1194    1.6173 C   0  0  0  0  0  0  0  0  0  0  0  0
    3.8514   -0.3685    1.8194 C   0  0  0  0  0  0  0  0  0  0  0  0
    2.9424   -0.2339    0.7614 C   0  0  0  0  0  0  0  0  0  0  0  0
    1.5753   -0.4827    0.9572 C   0  0  0  0  0  0  0  0  0  0  0  0
    7.1347    0.5335    0.1356 C   0  0  0  0  0  0  0  0  0  0  0  0
    8.1312   -0.0987    0.9488 N   0  0  0  0  0  0  0  0  0  0  0  0
    7.5012    1.3410   -0.8102 N   0  0  0  0  0  0  0  0  0  0  0  0
   -4.0971   -0.0502   -1.4627 C   0  0  0  0  0  0  0  0  0  0  0  0
   -5.4741   -0.1675   -1.2529 C   0  0  0  0  0  0  0  0  0  0  0  0
   -9.0772    0.8475    0.4327 H   0  0  0  0  0  0  0  0  0  0  0  0
   -7.7122    1.3976    1.2346 H   0  0  0  0  0  0  0  0  0  0  0  0
   -7.6844   -0.9484    1.2134 H   0  0  0  0  0  0  0  0  0  0  0  0
   -7.9407   -0.9493   -0.5612 H   0  0  0  0  0  0  0  0  0  0  0  0
   -5.4770   -0.3442    2.1501 H   0  0  0  0  0  0  0  0  0  0  0  0
   -3.0656   -0.1163    1.7856 H   0  0  0  0  0  0  0  0  0  0  0  0
   -1.5196    0.6852   -1.4231 H   0  0  0  0  0  0  0  0  0  0  0  0
    0.4736    0.1226   -2.2170 H   0  0  0  0  0  0  0  0  0  0  0  0
    2.8410    0.5822   -2.5577 H   0  0  0  0  0  0  0  0  0  0  0  0
    5.1286    0.7037   -1.6903 H   0  0  0  0  0  0  0  0  0  0  0  0
    5.8805   -0.2054    2.4628 H   0  0  0  0  0  0  0  0  0  0  0  0
    3.5100   -0.6605    2.8056 H   0  0  0  0  0  0  0  0  0  0  0  0
    1.2201   -0.7789    1.9381 H   0  0  0  0  0  0  0  0  0  0  0  0
    7.8870   -0.8667    1.6116 H   0  0  0  0  0  0  0  0  0  0  0  0
    9.1408    0.1433    0.8351 H   0  0  0  0  0  0  0  0  0  0  0  0
    8.5071    1.5509   -0.9969 H   0  0  0  0  0  0  0  0  0  0  0  0
   -3.7203    0.0493   -2.4730 H   0  0  0  0  0  0  0  0  0  0  0  0
   -6.1437   -0.1518   -2.1040 H   0  0  0  0  0  0  0  0  0  0  0  0
  1  2  1  0
  2  3  1  0
  3  4  2  0
  4  5  1  0
  5  6  2  0
  6  7  1  0
  7  8  1  0
  8  9  2  0
  8 10  1  0
 10 11  2  0
 11 12  1  0
 12 13  2  0
 13 14  1  0
 14 15  2  0
 15 16  1  0
 16 17  2  0
 17 18  1  0
 18 19  2  0
 15 20  1  0
 20 21  1  0
 20 22  2  3
  6 23  1  0
 23 24  2  0
 24  3  1  0
 19 10  1  0
 18 13  1  0
  1 25  1  0
  1 26  1  0
  2 27  1  0
  2 28  1  0
  4 29  1  0
  5 30  1  0
  7 31  1  0
 11 32  1  0
 12 33  1  0
 14 34  1  0
 16 35  1  0
 17 36  1  0
 19 37  1  0
 21 38  1  0
 21 39  1  0
 22 40  1  0
 23 41  1  0
 24 42  1  0
M  END
$$$$
