
     RDKit          3D

 38 41  0  0  0  0  0  0  0  0999 V2000
   -2.3805    1.1148    1.3425 C   0  0  1  0  0  0  0  0  0  0  0  0
   -2.6121    2.5596    1.2302 N   0  0  0  0  0  0  0  0  0  0  0  0
   -3.2909    0.3354    0.4092 C   0  0  0  0  0  0  0  0  0  0  0  0
   -4.3285   -0.4554    0.9357 C   0  0  0  0  0  0  0  0  0  0  0  0
   -5.1749   -1.1718    0.0839 C   0  0  0  0  0  0  0  0  0  0  0  0
   -4.9980   -1.1039   -1.2999 C   0  0  0  0  0  0  0  0  0  0  0  0
   -3.9752   -0.3178   -1.8352 C   0  0  0  0  0  0  0  0  0  0  0  0
   -3.1262    0.4006   -0.9882 C   0  0  0  0  0  0  0  0  0  0  0  0
   -0.9235    0.7517    1.1130 C   0  0  0  0  0  0  0  0  0  0  0  0
   -0.0856    1.5050    0.2686 C   0  0  0  0  0  0  0  0  0  0  0  0
    1.2384    1.1145    0.0490 C   0  0  0  0  0  0  0  0  0  0  0  0
    1.7505   -0.0475    0.6515 C   0  0  0  0  0  0  0  0  0  0  0  0
    0.9159   -0.7980    1.4949 C   0  0  0  0  0  0  0  0  0  0  0  0
   -0.4081   -0.4091    1.7137 C   0  0  0  0  0  0  0  0  0  0  0  0
    3.1546   -0.4735    0.4387 C   0  0  0  0  0  0  0  0  0  0  0  0
    3.8280   -0.3123   -0.7754 C   0  0  0  0  0  0  0  0  0  0  0  0
    3.3860    0.1807   -1.9475 N   0  0  0  0  0  0  0  0  0  0  0  0
    4.4671    0.0386   -2.7621 C   0  0  0  0  0  0  0  0  0  0  0  0
    5.5380   -0.5244   -2.1501 N   0  0  0  0  0  0  0  0  0  0  0  0
    5.1066   -0.7379   -0.9039 C   0  0  0  0  0  0  0  0  0  0  0  0
    5.7858   -1.3329    0.1041 N   0  0  0  0  0  0  0  0  0  0  0  0
    5.1419   -1.5002    1.2971 C   0  0  0  0  0  0  0  0  0  0  0  0
    3.8459   -1.0800    1.4529 N   0  0  0  0  0  0  0  0  0  0  0  0
   -2.6156    0.8341    2.3951 H   0  0  0  0  0  0  0  0  0  0  0  0
   -2.6572    2.8431    0.2247 H   0  0  0  0  0  0  0  0  0  0  0  0
   -3.5514    2.7730    1.6386 H   0  0  0  0  0  0  0  0  0  0  0  0
   -4.4837   -0.5200    2.0054 H   0  0  0  0  0  0  0  0  0  0  0  0
   -5.9693   -1.7796    0.4975 H   0  0  0  0  0  0  0  0  0  0  0  0
   -5.6544   -1.6591   -1.9573 H   0  0  0  0  0  0  0  0  0  0  0  0
   -3.8405   -0.2640   -2.9078 H   0  0  0  0  0  0  0  0  0  0  0  0
   -2.3420    1.0059   -1.4237 H   0  0  0  0  0  0  0  0  0  0  0  0
   -0.4450    2.3978   -0.2237 H   0  0  0  0  0  0  0  0  0  0  0  0
    1.8643    1.7378   -0.5754 H   0  0  0  0  0  0  0  0  0  0  0  0
    1.2829   -1.6982    1.9724 H   0  0  0  0  0  0  0  0  0  0  0  0
   -1.0359   -1.0186    2.3522 H   0  0  0  0  0  0  0  0  0  0  0  0
    4.4672    0.3371   -3.8021 H   0  0  0  0  0  0  0  0  0  0  0  0
    6.4702   -0.7524   -2.5611 H   0  0  0  0  0  0  0  0  0  0  0  0
    5.6555   -1.9732    2.1227 H   0  0  0  0  0  0  0  0  0  0  0  0
  1  2  1  0
  1  3  1  0
  3  4  2  0
  4  5  1  0
  5  6  2  0
  6  7  1  0
  7  8  2  0
  1  9  1  0
  9 10  2  0
 10 11  1  0
 11 12  2  0
 12 13  1  0
 13 14  2  0
 12 15  1  0
 15 16  2  0
 16 17  1  0
 17 18  2  0
 18 19  1  0
 19 20  1  0
 20 21  2  0
 21 22  1  0
 22 23  2  0
  8  3  1  0
 14  9  1  0
 23 15  1  0
 20 16  1  0
  1 24  1  1
  2 25  1  0
  2 26  1  0
  4 27  1  0
  5 28  1  0
  6 29  1  0
  7 30  1  0
  8 31  1  0
 10 32  1  0
 11 33  1  0
 13 34  1  0
 14 35  1  0
 18 36  1  0
 19 37  1  0
 22 38  1  0
M  END
$$$$
