
     RDKit          3D

 58 60  0  0  0  0  0  0  0  0999 V2000
    3.9425   -0.7260   -1.6114 C   0  0  0  0  0  0  0  0  0  0  0  0
    4.6332   -0.2430   -0.4020 N   0  0  0  0  0  0  0  0  0  0  0  0
    3.9897   -0.1871    0.9368 C   0  0  0  0  0  0  0  0  0  0  0  0
    2.4761   -0.5161    0.9798 C   0  0  0  0  0  0  0  0  0  0  0  0
    1.6503    0.4766    0.2815 N   0  0  0  0  0  0  0  0  0  0  0  0
    0.2122    0.4138    0.2365 C   0  0  0  0  0  0  0  0  0  0  0  0
   -0.5064   -0.6185    0.8675 C   0  0  0  0  0  0  0  0  0  0  0  0
   -1.9026   -0.6530    0.8032 C   0  0  0  0  0  0  0  0  0  0  0  0
   -2.6110    0.3386    0.1024 C   0  0  0  0  0  0  0  0  0  0  0  0
   -1.8920    1.3748   -0.5172 C   0  0  0  0  0  0  0  0  0  0  0  0
   -0.4965    1.4082   -0.4538 C   0  0  0  0  0  0  0  0  0  0  0  0
   -4.0922    0.3165    0.0319 C   0  0  0  0  0  0  0  0  0  0  0  0
   -4.7158    1.3888   -0.1996 O   0  0  0  0  0  0  0  0  0  0  0  0
   -4.8241   -0.9091    0.2042 N   0  0  0  0  0  0  0  0  0  0  0  0
   -6.2887   -0.9450    0.2441 C   0  0  1  0  0  0  0  0  0  0  0  0
   -6.8412   -1.1267   -1.1848 C   0  0  0  0  0  0  0  0  0  0  0  0
   -8.3741   -1.0449   -1.2657 C   0  0  0  0  0  0  0  0  0  0  0  0
   -8.8753    0.3267   -0.9324 C   0  0  0  0  0  0  0  0  0  0  0  0
   -8.7185    1.3628   -1.8475 O   0  0  0  0  0  0  0  0  0  0  0  0
   -9.4154    0.5486    0.1843 O   0  0  0  0  0  0  0  0  0  0  0  0
   -6.7421   -2.0519    1.1565 C   0  0  0  0  0  0  0  0  0  0  0  0
   -7.5206   -1.7534    2.2705 O   0  0  0  0  0  0  0  0  0  0  0  0
   -6.4258   -3.2483    0.9151 O   0  0  0  0  0  0  0  0  0  0  0  0
    4.2824    1.1702    1.6015 C   0  0  0  0  0  0  0  0  0  0  0  0
    5.7197    1.4111    1.6245 N   0  0  0  0  0  0  0  0  0  0  0  0
    6.5590    0.9850    0.5434 C   0  0  0  0  0  0  0  0  0  0  0  0
    6.0342    0.1527   -0.4666 C   0  0  0  0  0  0  0  0  0  0  0  0
    6.9276   -0.2759   -1.4777 C   0  0  0  0  0  0  0  0  0  0  0  0
    6.5639   -1.0629   -2.3894 O   0  0  0  0  0  0  0  0  0  0  0  0
    8.2174    0.1452   -1.4633 N   0  0  0  0  0  0  0  0  0  0  0  0
    8.6891    0.9624   -0.4896 C   0  0  0  0  0  0  0  0  0  0  0  0
   10.0542    1.3797   -0.5151 N   0  0  0  0  0  0  0  0  0  0  0  0
    7.8645    1.3695    0.5107 N   0  0  0  0  0  0  0  0  0  0  0  0
    2.8437   -0.7082   -1.5322 H   0  0  0  0  0  0  0  0  0  0  0  0
    4.1962   -0.0769   -2.4761 H   0  0  0  0  0  0  0  0  0  0  0  0
    4.2408   -1.7743   -1.8198 H   0  0  0  0  0  0  0  0  0  0  0  0
    4.4833   -0.9622    1.5657 H   0  0  0  0  0  0  0  0  0  0  0  0
    2.3008   -1.5261    0.5505 H   0  0  0  0  0  0  0  0  0  0  0  0
    2.1625   -0.5545    2.0460 H   0  0  0  0  0  0  0  0  0  0  0  0
    2.1183    1.2456   -0.2493 H   0  0  0  0  0  0  0  0  0  0  0  0
    0.0015   -1.4001    1.4154 H   0  0  0  0  0  0  0  0  0  0  0  0
   -2.4227   -1.4463    1.3235 H   0  0  0  0  0  0  0  0  0  0  0  0
   -2.4086    2.1556   -1.0618 H   0  0  0  0  0  0  0  0  0  0  0  0
    0.0342    2.2139   -0.9454 H   0  0  0  0  0  0  0  0  0  0  0  0
   -4.3127   -1.8151    0.1055 H   0  0  0  0  0  0  0  0  0  0  0  0
   -6.6637    0.0150    0.6617 H   0  0  0  0  0  0  0  0  0  0  0  0
   -6.4044   -0.3485   -1.8490 H   0  0  0  0  0  0  0  0  0  0  0  0
   -6.5149   -2.1123   -1.5836 H   0  0  0  0  0  0  0  0  0  0  0  0
   -8.6898   -1.2900   -2.3023 H   0  0  0  0  0  0  0  0  0  0  0  0
   -8.8393   -1.7982   -0.5937 H   0  0  0  0  0  0  0  0  0  0  0  0
   -9.0409    2.2987   -1.6325 H   0  0  0  0  0  0  0  0  0  0  0  0
   -7.8383   -2.4861    2.8937 H   0  0  0  0  0  0  0  0  0  0  0  0
    3.8924    1.1783    2.6426 H   0  0  0  0  0  0  0  0  0  0  0  0
    3.8007    1.9977    1.0415 H   0  0  0  0  0  0  0  0  0  0  0  0
    6.1254    1.9681    2.4099 H   0  0  0  0  0  0  0  0  0  0  0  0
   10.4353    2.0055    0.2287 H   0  0  0  0  0  0  0  0  0  0  0  0
   10.6879    1.0624   -1.2818 H   0  0  0  0  0  0  0  0  0  0  0  0
    8.2387    1.9883    1.2652 H   0  0  0  0  0  0  0  0  0  0  0  0
  1  2  1  0
  2  3  1  0
  3  4  1  0
  4  5  1  0
  5  6  1  0
  6  7  2  0
  7  8  1  0
  8  9  2  0
  9 10  1  0
 10 11  2  0
  9 12  1  0
 12 13  2  0
 12 14  1  0
 14 15  1  0
 15 16  1  0
 16 17  1  0
 17 18  1  0
 18 19  1  0
 18 20  2  0
 15 21  1  0
 21 22  1  0
 21 23  2  0
  3 24  1  0
 24 25  1  0
 25 26  1  0
 26 27  2  0
 27 28  1  0
 28 29  2  0
 28 30  1  0
 30 31  2  0
 31 32  1  0
 31 33  1  0
 27  2  1  0
 11  6  1  0
 33 26  1  0
  1 34  1  0
  1 35  1  0
  1 36  1  0
  3 37  1  0
  4 38  1  0
  4 39  1  0
  5 40  1  0
  7 41  1  0
  8 42  1  0
 10 43  1  0
 11 44  1  0
 14 45  1  0
 15 46  1  1
 16 47  1  0
 16 48  1  0
 17 49  1  0
 17 50  1  0
 19 51  1  0
 22 52  1  0
 24 53  1  0
 24 54  1  0
 25 55  1  0
 32 56  1  0
 32 57  1  0
 33 58  1  0
M  END
$$$$
