
     RDKit          3D

 53 53  0  0  0  0  0  0  0  0999 V2000
   -6.1628    1.6264    1.3952 C   0  0  0  0  0  0  0  0  0  0  0  0
   -4.9042    2.7880    0.9009 S   0  0  0  0  0  6  0  0  0  0  0  0
   -4.9267    2.9532   -0.5936 O   0  0  0  0  0  0  0  0  0  0  0  0
   -5.2093    4.1144    1.5369 O   0  0  0  0  0  0  0  0  0  0  0  0
   -3.3652    2.2905    1.4118 O   0  0  0  0  0  0  0  0  0  0  0  0
   -3.0780    1.0399    0.8345 C   0  0  0  0  0  0  0  0  0  0  0  0
   -1.6405    0.6547    1.1693 C   0  0  0  0  0  0  0  0  0  0  0  0
   -1.3252   -0.7011    0.6912 N   0  0  0  0  0  0  0  0  0  0  0  0
   -1.3483   -1.8365    1.6254 C   0  0  0  0  0  0  0  0  0  0  0  0
   -0.0658   -1.9131    2.4508 C   0  0  0  0  0  0  0  0  0  0  0  0
   -0.2371   -3.2731    3.8193 Br  0  0  0  0  0  0  0  0  0  0  0  0
   -0.9780   -0.9142   -0.6927 C   0  0  0  0  0  0  0  0  0  0  0  0
    0.3709   -0.8037   -1.1209 C   0  0  0  0  0  0  0  0  0  0  0  0
    0.6860   -0.9922   -2.4755 C   0  0  0  0  0  0  0  0  0  0  0  0
   -0.3074   -1.2794   -3.4189 C   0  0  0  0  0  0  0  0  0  0  0  0
   -1.6366   -1.3939   -2.9914 C   0  0  0  0  0  0  0  0  0  0  0  0
   -1.9844   -1.2319   -1.6412 C   0  0  0  0  0  0  0  0  0  0  0  0
   -3.3633   -1.3877   -1.2595 N   0  0  0  0  0  4  0  0  0  0  0  0
   -3.7040   -2.0478   -0.1031 O   0  0  0  0  0  1  0  0  0  0  0  0
   -4.2722   -1.0549   -2.0483 O   0  0  0  0  0  0  0  0  0  0  0  0
    0.0359   -1.4570   -4.8065 N   0  0  0  0  0  4  0  0  0  0  0  0
    1.3435   -1.3536   -5.2232 O   0  0  0  0  0  1  0  0  0  0  0  0
   -0.8459   -1.7071   -5.6546 O   0  0  0  0  0  0  0  0  0  0  0  0
    1.4788   -0.4968   -0.1859 C   0  0  0  0  0  0  0  0  0  0  0  0
    1.3336    0.3901    0.6971 O   0  0  0  0  0  0  0  0  0  0  0  0
    2.7242   -1.2054   -0.2853 N   0  0  0  0  0  0  0  0  0  0  0  0
    3.8725   -0.8970    0.5645 C   0  0  0  0  0  0  0  0  0  0  0  0
    4.5510    0.3905    0.1032 C   0  0  0  0  0  0  0  0  0  0  0  0
    5.6750    0.6314    0.9159 O   0  0  0  0  0  0  0  0  0  0  0  0
    6.4346    2.0599    0.3748 P   0  0  0  0  0  5  0  0  0  0  0  0
    7.7308    2.4170    1.4017 O   0  0  0  0  0  0  0  0  0  0  0  0
    5.3421    3.3528    0.3994 O   0  0  0  0  0  0  0  0  0  0  0  0
    6.9566    1.8693   -1.0320 O   0  0  0  0  0  0  0  0  0  0  0  0
   -6.0278    1.3662    2.4652 H   0  0  0  0  0  0  0  0  0  0  0  0
   -7.1642    2.0819    1.2510 H   0  0  0  0  0  0  0  0  0  0  0  0
   -6.0923    0.7075    0.7775 H   0  0  0  0  0  0  0  0  0  0  0  0
   -3.1784    1.0858   -0.2720 H   0  0  0  0  0  0  0  0  0  0  0  0
   -3.7544    0.2640    1.2527 H   0  0  0  0  0  0  0  0  0  0  0  0
   -0.9547    1.3951    0.7059 H   0  0  0  0  0  0  0  0  0  0  0  0
   -1.5024    0.7129    2.2711 H   0  0  0  0  0  0  0  0  0  0  0  0
   -2.2201   -1.7318    2.3074 H   0  0  0  0  0  0  0  0  0  0  0  0
   -1.4711   -2.7909    1.0680 H   0  0  0  0  0  0  0  0  0  0  0  0
    0.7897   -2.1895    1.8025 H   0  0  0  0  0  0  0  0  0  0  0  0
    0.1430   -0.9410    2.9439 H   0  0  0  0  0  0  0  0  0  0  0  0
    1.7141   -0.8914   -2.8008 H   0  0  0  0  0  0  0  0  0  0  0  0
   -2.4103   -1.6314   -3.7106 H   0  0  0  0  0  0  0  0  0  0  0  0
    2.7917   -2.0302   -0.9233 H   0  0  0  0  0  0  0  0  0  0  0  0
    3.5465   -0.8042    1.6235 H   0  0  0  0  0  0  0  0  0  0  0  0
    4.6052   -1.7312    0.5044 H   0  0  0  0  0  0  0  0  0  0  0  0
    3.8211    1.2265    0.1867 H   0  0  0  0  0  0  0  0  0  0  0  0
    4.8528    0.2610   -0.9614 H   0  0  0  0  0  0  0  0  0  0  0  0
    8.2835    1.5950    1.4058 H   0  0  0  0  0  0  0  0  0  0  0  0
    5.0471    3.4141    1.3428 H   0  0  0  0  0  0  0  0  0  0  0  0
  1  2  1  0
  2  3  2  0
  2  4  2  0
  2  5  1  0
  5  6  1  0
  6  7  1  0
  7  8  1  0
  8  9  1  0
  9 10  1  0
 10 11  1  0
  8 12  1  0
 12 13  2  0
 13 14  1  0
 14 15  2  0
 15 16  1  0
 16 17  2  0
 17 18  1  0
 18 19  1  0
 18 20  2  0
 15 21  1  0
 21 22  1  0
 21 23  2  0
 13 24  1  0
 24 25  2  0
 24 26  1  0
 26 27  1  0
 27 28  1  0
 28 29  1  0
 29 30  1  0
 30 31  1  0
 30 32  1  0
 30 33  2  0
 17 12  1  0
  1 34  1  0
  1 35  1  0
  1 36  1  0
  6 37  1  0
  6 38  1  0
  7 39  1  0
  7 40  1  0
  9 41  1  0
  9 42  1  0
 10 43  1  0
 10 44  1  0
 14 45  1  0
 16 46  1  0
 26 47  1  0
 27 48  1  0
 27 49  1  0
 28 50  1  0
 28 51  1  0
 31 52  1  0
 32 53  1  0
M  CHG  4  18   1  19  -1  21   1  22  -1
M  END
$$$$
