
     RDKit          3D

 33 34  0  0  0  0  0  0  0  0999 V2000
   -5.2616    1.0518   -1.0686 C   0  0  0  0  0  0  0  0  0  0  0  0
   -3.9554    1.3313   -0.5762 O   0  0  0  0  0  0  0  0  0  0  0  0
   -3.0068    0.3513   -0.2493 C   0  0  0  0  0  0  0  0  0  0  0  0
   -1.7507    0.7751    0.2273 C   0  0  0  0  0  0  0  0  0  0  0  0
   -0.8065   -0.1968    0.5555 C   0  0  0  0  0  0  0  0  0  0  0  0
   -1.0686   -1.5343    0.4187 C   0  0  0  0  0  0  0  0  0  0  0  0
   -0.0023   -2.2738    0.7708 N   0  0  0  0  0  0  0  0  0  0  0  0
    0.9578   -1.3943    1.1369 C   0  0  0  0  0  0  0  0  0  0  0  0
    0.4873   -0.0893    1.0264 C   0  0  0  0  0  0  0  0  0  0  0  0
    1.2742    1.1665    1.2634 C   0  0  0  0  0  0  0  0  0  0  0  0
    1.8486    1.7192   -0.0456 C   0  0  0  0  0  0  0  0  0  0  0  0
    2.7368    0.7486   -0.6848 N   0  0  0  0  0  0  0  0  0  0  0  0
    4.0386    0.4352   -0.1723 C   0  0  0  0  0  0  0  0  0  0  0  0
    4.8638   -0.6198   -0.8330 C   0  0  0  0  0  0  0  0  0  0  0  0
    4.5055    1.0649    0.8150 O   0  0  0  0  0  0  0  0  0  0  0  0
   -2.2963   -1.9940   -0.0505 C   0  0  0  0  0  0  0  0  0  0  0  0
   -3.2742   -1.0399   -0.3851 C   0  0  0  0  0  0  0  0  0  0  0  0
   -5.7960    2.0083   -1.2420 H   0  0  0  0  0  0  0  0  0  0  0  0
   -5.1972    0.5010   -2.0307 H   0  0  0  0  0  0  0  0  0  0  0  0
   -5.8311    0.4563   -0.3241 H   0  0  0  0  0  0  0  0  0  0  0  0
   -1.5261    1.8286    0.3344 H   0  0  0  0  0  0  0  0  0  0  0  0
    0.0784   -3.3147    0.7508 H   0  0  0  0  0  0  0  0  0  0  0  0
    1.9523   -1.6821    1.4525 H   0  0  0  0  0  0  0  0  0  0  0  0
    2.0945    0.9624    1.9838 H   0  0  0  0  0  0  0  0  0  0  0  0
    0.6132    1.9320    1.7229 H   0  0  0  0  0  0  0  0  0  0  0  0
    2.4041    2.6605    0.1552 H   0  0  0  0  0  0  0  0  0  0  0  0
    1.0132    1.9651   -0.7372 H   0  0  0  0  0  0  0  0  0  0  0  0
    2.4153    0.2845   -1.5644 H   0  0  0  0  0  0  0  0  0  0  0  0
    5.2212   -0.2483   -1.8157 H   0  0  0  0  0  0  0  0  0  0  0  0
    4.2500   -1.5318   -0.9875 H   0  0  0  0  0  0  0  0  0  0  0  0
    5.7401   -0.8815   -0.2025 H   0  0  0  0  0  0  0  0  0  0  0  0
   -2.4923   -3.0531   -0.1581 H   0  0  0  0  0  0  0  0  0  0  0  0
   -4.2302   -1.3891   -0.7501 H   0  0  0  0  0  0  0  0  0  0  0  0
  1  2  1  0
  2  3  1  0
  3  4  2  0
  4  5  1  0
  5  6  2  0
  6  7  1  0
  7  8  1  0
  8  9  2  0
  9 10  1  0
 10 11  1  0
 11 12  1  0
 12 13  1  0
 13 14  1  0
 13 15  2  0
  6 16  1  0
 16 17  2  0
 17  3  1  0
  9  5  1  0
  1 18  1  0
  1 19  1  0
  1 20  1  0
  4 21  1  0
  7 22  1  0
  8 23  1  0
 10 24  1  0
 10 25  1  0
 11 26  1  0
 11 27  1  0
 12 28  1  0
 14 29  1  0
 14 30  1  0
 14 31  1  0
 16 32  1  0
 17 33  1  0
M  END
$$$$
