
     RDKit          3D

 75 75  0  0  0  0  0  0  0  0999 V2000
   -4.0226    3.5300   -2.7322 C   0  0  0  0  0  0  0  0  0  0  0  0
   -2.6652    2.9784   -2.3258 C   0  0  0  0  0  0  0  0  0  0  0  0
   -2.8037    1.6163   -1.9995 O   0  0  0  0  0  0  0  0  0  0  0  0
   -1.2948    1.0338   -1.4521 P   0  0  0  0  0  5  0  0  0  0  0  0
   -0.2543    1.2498   -2.5284 O   0  0  0  0  0  0  0  0  0  0  0  0
   -0.8200    1.8677   -0.0399 O   0  0  0  0  0  0  0  0  0  0  0  0
   -1.8134    1.6839    0.9412 C   0  0  0  0  0  0  0  0  0  0  0  0
   -1.4362    2.4699    2.1852 C   0  0  0  0  0  0  0  0  0  0  0  0
   -1.4251   -0.7376   -1.1225 C   0  0  0  0  0  0  0  0  0  0  0  0
   -0.4798   -1.4146   -0.4505 C   0  0  0  0  0  0  0  0  0  0  0  0
    0.7953   -0.8219   -0.0055 C   0  0  0  0  0  0  0  0  0  0  0  0
    1.7673   -0.4697   -0.9362 C   0  0  0  0  0  0  0  0  0  0  0  0
    3.0194    0.0517   -0.5431 C   0  0  0  0  0  0  0  0  0  0  0  0
    3.2038    0.3270    0.8516 C   0  0  0  0  0  0  0  0  0  0  0  0
    4.3012    1.0562    1.3032 O   0  0  0  0  0  0  0  0  0  0  0  0
    2.2553   -0.1165    1.8221 C   0  0  0  0  0  0  0  0  0  0  0  0
    1.0557   -0.6958    1.3537 C   0  0  0  0  0  0  0  0  0  0  0  0
    2.5210    0.0493    3.3478 C   0  0  0  0  0  0  0  0  0  0  0  0
    3.8114   -0.7072    3.7398 C   0  0  0  0  0  0  0  0  0  0  0  0
    1.3817   -0.5285    4.2288 C   0  0  0  0  0  0  0  0  0  0  0  0
    2.6576    1.5459    3.7189 C   0  0  0  0  0  0  0  0  0  0  0  0
    4.1203    0.3001   -1.6206 C   0  0  0  0  0  0  0  0  0  0  0  0
    3.8928   -0.5598   -2.8981 C   0  0  0  0  0  0  0  0  0  0  0  0
    5.5316   -0.0912   -1.0987 C   0  0  0  0  0  0  0  0  0  0  0  0
    4.0965    1.7788   -2.0591 C   0  0  0  0  0  0  0  0  0  0  0  0
   -2.9588   -1.5652   -1.5604 P   0  0  0  0  0  5  0  0  0  0  0  0
   -3.2940   -1.2138   -2.9931 O   0  0  0  0  0  0  0  0  0  0  0  0
   -4.2035   -0.9900   -0.5450 O   0  0  0  0  0  0  0  0  0  0  0  0
   -4.0609   -1.5845    0.7236 C   0  0  0  0  0  0  0  0  0  0  0  0
   -4.9763   -0.8749    1.7084 C   0  0  0  0  0  0  0  0  0  0  0  0
   -2.7793   -3.2597   -1.4077 O   0  0  0  0  0  0  0  0  0  0  0  0
   -3.9228   -3.9144   -1.9172 C   0  0  0  0  0  0  0  0  0  0  0  0
   -3.6288   -4.4810   -3.3009 C   0  0  0  0  0  0  0  0  0  0  0  0
   -3.9282    4.6045   -2.9962 H   0  0  0  0  0  0  0  0  0  0  0  0
   -4.7410    3.4272   -1.8912 H   0  0  0  0  0  0  0  0  0  0  0  0
   -4.4104    2.9751   -3.6127 H   0  0  0  0  0  0  0  0  0  0  0  0
   -1.9680    3.1084   -3.1837 H   0  0  0  0  0  0  0  0  0  0  0  0
   -2.3024    3.5687   -1.4540 H   0  0  0  0  0  0  0  0  0  0  0  0
   -1.8903    0.6138    1.2292 H   0  0  0  0  0  0  0  0  0  0  0  0
   -2.8038    2.0509    0.5895 H   0  0  0  0  0  0  0  0  0  0  0  0
   -0.4732    2.0958    2.5887 H   0  0  0  0  0  0  0  0  0  0  0  0
   -1.3372    3.5484    1.9394 H   0  0  0  0  0  0  0  0  0  0  0  0
   -2.2218    2.3460    2.9603 H   0  0  0  0  0  0  0  0  0  0  0  0
   -0.6656   -2.4407   -0.1595 H   0  0  0  0  0  0  0  0  0  0  0  0
    1.5261   -0.6401   -1.9727 H   0  0  0  0  0  0  0  0  0  0  0  0
    4.7124    1.8180    0.7881 H   0  0  0  0  0  0  0  0  0  0  0  0
    0.2819   -1.0305    2.0276 H   0  0  0  0  0  0  0  0  0  0  0  0
    3.7365   -1.7754    3.4418 H   0  0  0  0  0  0  0  0  0  0  0  0
    3.9762   -0.6629    4.8384 H   0  0  0  0  0  0  0  0  0  0  0  0
    4.7147   -0.2789    3.2635 H   0  0  0  0  0  0  0  0  0  0  0  0
    0.4268    0.0118    4.0493 H   0  0  0  0  0  0  0  0  0  0  0  0
    1.6195   -0.4195    5.3096 H   0  0  0  0  0  0  0  0  0  0  0  0
    1.2389   -1.6136    4.0342 H   0  0  0  0  0  0  0  0  0  0  0  0
    1.8135    2.1294    3.2963 H   0  0  0  0  0  0  0  0  0  0  0  0
    2.6543    1.6829    4.8221 H   0  0  0  0  0  0  0  0  0  0  0  0
    3.6050    1.9914    3.3600 H   0  0  0  0  0  0  0  0  0  0  0  0
    4.7538   -0.4839   -3.5974 H   0  0  0  0  0  0  0  0  0  0  0  0
    3.0142   -0.2121   -3.4816 H   0  0  0  0  0  0  0  0  0  0  0  0
    3.7613   -1.6311   -2.6317 H   0  0  0  0  0  0  0  0  0  0  0  0
    5.9998    0.6875   -0.4715 H   0  0  0  0  0  0  0  0  0  0  0  0
    5.4841   -1.0425   -0.5260 H   0  0  0  0  0  0  0  0  0  0  0  0
    6.2519   -0.2362   -1.9326 H   0  0  0  0  0  0  0  0  0  0  0  0
    4.2885    2.4731   -1.2209 H   0  0  0  0  0  0  0  0  0  0  0  0
    3.1025    2.0377   -2.4844 H   0  0  0  0  0  0  0  0  0  0  0  0
    4.8683    1.9670   -2.8368 H   0  0  0  0  0  0  0  0  0  0  0  0
   -4.3564   -2.6557    0.6808 H   0  0  0  0  0  0  0  0  0  0  0  0
   -3.0202   -1.5040    1.1109 H   0  0  0  0  0  0  0  0  0  0  0  0
   -6.0318   -0.9537    1.3717 H   0  0  0  0  0  0  0  0  0  0  0  0
   -4.8821   -1.3408    2.7120 H   0  0  0  0  0  0  0  0  0  0  0  0
   -4.6954    0.1974    1.7815 H   0  0  0  0  0  0  0  0  0  0  0  0
   -4.8436   -3.2860   -1.9501 H   0  0  0  0  0  0  0  0  0  0  0  0
   -4.1561   -4.7643   -1.2418 H   0  0  0  0  0  0  0  0  0  0  0  0
   -4.5078   -5.0531   -3.6657 H   0  0  0  0  0  0  0  0  0  0  0  0
   -3.4143   -3.6613   -4.0173 H   0  0  0  0  0  0  0  0  0  0  0  0
   -2.7517   -5.1608   -3.2544 H   0  0  0  0  0  0  0  0  0  0  0  0
  1  2  1  0
  2  3  1  0
  3  4  1  0
  4  5  2  0
  4  6  1  0
  6  7  1  0
  7  8  1  0
  4  9  1  0
  9 10  2  3
 10 11  1  0
 11 12  2  0
 12 13  1  0
 13 14  2  0
 14 15  1  0
 14 16  1  0
 16 17  2  0
 16 18  1  0
 18 19  1  0
 18 20  1  0
 18 21  1  0
 13 22  1  0
 22 23  1  0
 22 24  1  0
 22 25  1  0
  9 26  1  0
 26 27  2  0
 26 28  1  0
 28 29  1  0
 29 30  1  0
 26 31  1  0
 31 32  1  0
 32 33  1  0
 17 11  1  0
  1 34  1  0
  1 35  1  0
  1 36  1  0
  2 37  1  0
  2 38  1  0
  7 39  1  0
  7 40  1  0
  8 41  1  0
  8 42  1  0
  8 43  1  0
 10 44  1  0
 12 45  1  0
 15 46  1  0
 17 47  1  0
 19 48  1  0
 19 49  1  0
 19 50  1  0
 20 51  1  0
 20 52  1  0
 20 53  1  0
 21 54  1  0
 21 55  1  0
 21 56  1  0
 23 57  1  0
 23 58  1  0
 23 59  1  0
 24 60  1  0
 24 61  1  0
 24 62  1  0
 25 63  1  0
 25 64  1  0
 25 65  1  0
 29 66  1  0
 29 67  1  0
 30 68  1  0
 30 69  1  0
 30 70  1  0
 32 71  1  0
 32 72  1  0
 33 73  1  0
 33 74  1  0
 33 75  1  0
M  END
$$$$
