
     RDKit          3D

 32 33  0  0  0  0  0  0  0  0999 V2000
   -2.3361    1.8760   -0.0975 C   0  0  0  0  0  0  0  0  0  0  0  0
   -2.7493    0.3957   -0.0203 C   0  0  0  0  0  0  0  0  0  0  0  0
   -2.6212   -0.1166    1.4251 C   0  0  0  0  0  0  0  0  0  0  0  0
   -1.9323   -0.3932   -0.8999 O   0  0  0  0  0  0  0  0  0  0  0  0
   -0.5422   -0.5078   -0.7882 C   0  0  0  0  0  0  0  0  0  0  0  0
    0.0188   -1.5339   -0.0188 C   0  0  0  0  0  0  0  0  0  0  0  0
    1.4073   -1.6527    0.0887 C   0  0  0  0  0  0  0  0  0  0  0  0
    2.2489   -0.7366   -0.5616 C   0  0  0  0  0  0  0  0  0  0  0  0
    1.6827    0.2605   -1.3730 C   0  0  0  0  0  0  0  0  0  0  0  0
    0.2938    0.3773   -1.4794 C   0  0  0  0  0  0  0  0  0  0  0  0
    3.7437   -0.9044   -0.4795 C   0  0  0  0  0  0  0  0  0  0  0  0
    4.5382    0.3649   -0.1701 C   0  0  0  0  0  0  0  0  0  0  0  0
    4.3800   -0.7060    0.8960 C   0  0  0  0  0  0  0  0  0  0  0  0
    5.8615   -1.6427    1.2203 Cl  0  0  0  0  0  0  0  0  0  0  0  0
    3.3836   -0.1886    2.2896 Cl  0  0  0  0  0  0  0  0  0  0  0  0
   -4.1888    0.2678   -0.4572 C   0  0  0  0  0  0  0  0  0  0  0  0
   -5.1908    0.9420    0.2370 O   0  0  0  0  0  0  0  0  0  0  0  0
   -4.4949   -0.4473   -1.4497 O   0  0  0  0  0  0  0  0  0  0  0  0
   -2.3962    2.2365   -1.1469 H   0  0  0  0  0  0  0  0  0  0  0  0
   -2.9998    2.5062    0.5333 H   0  0  0  0  0  0  0  0  0  0  0  0
   -1.2944    2.0124    0.2629 H   0  0  0  0  0  0  0  0  0  0  0  0
   -1.5814    0.0072    1.7952 H   0  0  0  0  0  0  0  0  0  0  0  0
   -3.2944    0.4472    2.1066 H   0  0  0  0  0  0  0  0  0  0  0  0
   -2.8872   -1.1944    1.4748 H   0  0  0  0  0  0  0  0  0  0  0  0
   -0.6214   -2.2407    0.4933 H   0  0  0  0  0  0  0  0  0  0  0  0
    1.8280   -2.4551    0.6821 H   0  0  0  0  0  0  0  0  0  0  0  0
    2.3153    0.9454   -1.9237 H   0  0  0  0  0  0  0  0  0  0  0  0
   -0.1332    1.1530   -2.1018 H   0  0  0  0  0  0  0  0  0  0  0  0
    4.2488   -1.6230   -1.1594 H   0  0  0  0  0  0  0  0  0  0  0  0
    5.5351    0.4010   -0.6583 H   0  0  0  0  0  0  0  0  0  0  0  0
    3.9386    1.2847    0.0016 H   0  0  0  0  0  0  0  0  0  0  0  0
   -6.1607    0.8651   -0.0451 H   0  0  0  0  0  0  0  0  0  0  0  0
  1  2  1  0
  2  3  1  0
  2  4  1  0
  4  5  1  0
  5  6  2  0
  6  7  1  0
  7  8  2  0
  8  9  1  0
  9 10  2  0
  8 11  1  0
 11 12  1  0
 12 13  1  0
 13 14  1  0
 13 15  1  0
  2 16  1  0
 16 17  1  0
 16 18  2  0
 10  5  1  0
 13 11  1  0
  1 19  1  0
  1 20  1  0
  1 21  1  0
  3 22  1  0
  3 23  1  0
  3 24  1  0
  6 25  1  0
  7 26  1  0
  9 27  1  0
 10 28  1  0
 11 29  1  0
 12 30  1  0
 12 31  1  0
 17 32  1  0
M  END
$$$$
