
     RDKit          3D

 50 54  0  0  0  0  0  0  0  0999 V2000
   -2.1625    1.2017   -0.0402 C   0  0  2  0  0  0  0  0  0  0  0  0
   -2.3792    2.5909   -0.4573 N   0  0  0  0  0  0  0  0  0  0  0  0
   -0.6589    0.9112    0.0136 C   0  0  0  0  0  0  0  0  0  0  0  0
   -0.0299    1.8020    0.9326 O   0  0  0  0  0  0  0  0  0  0  0  0
    1.3438    1.8095    1.2151 C   0  0  0  0  0  0  0  0  0  0  0  0
    1.8326    2.7409    2.1341 C   0  0  0  0  0  0  0  0  0  0  0  0
    3.1563    2.7791    2.4358 N   0  0  0  0  0  0  0  0  0  0  0  0
    4.0469    1.9254    1.8669 C   0  0  0  0  0  0  0  0  0  0  0  0
    3.6157    0.9678    0.9341 C   0  0  0  0  0  0  0  0  0  0  0  0
    2.2486    0.9174    0.6128 C   0  0  0  0  0  0  0  0  0  0  0  0
    4.5809    0.0315    0.3043 C   0  0  0  0  0  0  0  0  0  0  0  0
    5.6263   -0.5395    1.0712 C   0  0  0  0  0  0  0  0  0  0  0  0
    6.5013   -1.4113    0.4317 C   0  0  0  0  0  0  0  0  0  0  0  0
    7.5896   -2.1191    0.8815 C   0  0  0  0  0  0  0  0  0  0  0  0
    8.0761   -2.8182   -0.1691 N   0  0  0  0  0  0  0  0  0  0  0  0
    7.3481   -2.5868   -1.2569 N   0  0  0  0  0  0  0  0  0  0  0  0
    6.3823   -1.7257   -0.8915 C   0  0  0  0  0  0  0  0  0  0  0  0
    5.3736   -1.1890   -1.6833 C   0  0  0  0  0  0  0  0  0  0  0  0
    4.4656   -0.3015   -1.0752 C   0  0  0  0  0  0  0  0  0  0  0  0
   -2.8695    0.2089   -0.9887 C   0  0  0  0  0  0  0  0  0  0  0  0
   -4.3638    0.3679   -0.9422 C   0  0  0  0  0  0  0  0  0  0  0  0
   -5.1813   -0.0752    0.0025 C   0  0  0  0  0  0  0  0  0  0  0  0
   -4.8464   -1.0343    1.0640 C   0  0  0  0  0  0  0  0  0  0  0  0
   -5.7313   -2.0025    1.3339 C   0  0  0  0  0  0  0  0  0  0  0  0
   -6.9903   -2.1249    0.5516 C   0  0  0  0  0  0  0  0  0  0  0  0
   -7.3545   -1.1860   -0.3402 C   0  0  0  0  0  0  0  0  0  0  0  0
   -6.5956    0.1135   -0.4372 C   0  0  0  0  0  0  0  0  0  0  0  0
   -6.4567    0.5897   -1.8086 N   0  0  0  0  0  0  0  0  0  0  0  0
   -5.2015    0.7798   -2.0586 C   0  0  0  0  0  0  0  0  0  0  0  0
   -2.5670    1.0701    0.9885 H   0  0  0  0  0  0  0  0  0  0  0  0
   -3.3895    2.8312   -0.3348 H   0  0  0  0  0  0  0  0  0  0  0  0
   -2.1500    2.6921   -1.4732 H   0  0  0  0  0  0  0  0  0  0  0  0
   -0.4965   -0.1363    0.3506 H   0  0  0  0  0  0  0  0  0  0  0  0
   -0.2147    1.0429   -0.9979 H   0  0  0  0  0  0  0  0  0  0  0  0
    1.1565    3.4385    2.6109 H   0  0  0  0  0  0  0  0  0  0  0  0
    5.0931    2.0085    2.1305 H   0  0  0  0  0  0  0  0  0  0  0  0
    1.8932    0.1739   -0.0874 H   0  0  0  0  0  0  0  0  0  0  0  0
    5.7419   -0.3269    2.1266 H   0  0  0  0  0  0  0  0  0  0  0  0
    7.9991   -2.1308    1.8831 H   0  0  0  0  0  0  0  0  0  0  0  0
    8.9039   -3.4536   -0.1456 H   0  0  0  0  0  0  0  0  0  0  0  0
    5.2905   -1.4416   -2.7324 H   0  0  0  0  0  0  0  0  0  0  0  0
    3.6852    0.1383   -1.6830 H   0  0  0  0  0  0  0  0  0  0  0  0
   -2.5123    0.3656   -2.0299 H   0  0  0  0  0  0  0  0  0  0  0  0
   -2.6108   -0.8354   -0.7083 H   0  0  0  0  0  0  0  0  0  0  0  0
   -3.8850   -1.0118    1.5607 H   0  0  0  0  0  0  0  0  0  0  0  0
   -5.4957   -2.7509    2.0794 H   0  0  0  0  0  0  0  0  0  0  0  0
   -7.6057   -3.0059    0.6806 H   0  0  0  0  0  0  0  0  0  0  0  0
   -8.2755   -1.3063   -0.8967 H   0  0  0  0  0  0  0  0  0  0  0  0
   -7.0882    0.8901    0.1866 H   0  0  0  0  0  0  0  0  0  0  0  0
   -4.8387    1.1250   -3.0174 H   0  0  0  0  0  0  0  0  0  0  0  0
  1  2  1  0
  1  3  1  0
  3  4  1  0
  4  5  1  0
  5  6  2  0
  6  7  1  0
  7  8  2  0
  8  9  1  0
  9 10  2  0
  9 11  1  0
 11 12  2  0
 12 13  1  0
 13 14  2  0
 14 15  1  0
 15 16  1  0
 16 17  2  0
 17 18  1  0
 18 19  2  0
  1 20  1  0
 20 21  1  0
 21 22  2  0
 22 23  1  0
 23 24  2  0
 24 25  1  0
 25 26  2  0
 26 27  1  0
 27 28  1  0
 28 29  2  0
 10  5  1  0
 19 11  1  0
 29 21  1  0
 17 13  1  0
 27 22  1  0
  1 30  1  1
  2 31  1  0
  2 32  1  0
  3 33  1  0
  3 34  1  0
  6 35  1  0
  8 36  1  0
 10 37  1  0
 12 38  1  0
 14 39  1  0
 15 40  1  0
 18 41  1  0
 19 42  1  0
 20 43  1  0
 20 44  1  0
 23 45  1  0
 24 46  1  0
 25 47  1  0
 26 48  1  0
 27 49  1  0
 29 50  1  0
M  END
$$$$
