
     RDKit          3D

 65 68  0  0  0  0  0  0  0  0999 V2000
  -10.7693   -1.7853    0.6806 C   0  0  0  0  0  0  0  0  0  0  0  0
   -9.3809   -2.1884    1.1660 C   0  0  0  0  0  0  0  0  0  0  0  0
   -8.3573   -1.2923    0.6295 N   0  0  0  0  0  0  0  0  0  0  0  0
   -6.9695   -1.4730    0.9394 C   0  0  0  0  0  0  0  0  0  0  0  0
   -6.6044   -2.4302    1.6756 O   0  0  0  0  0  0  0  0  0  0  0  0
   -5.9395   -0.5553    0.3425 C   0  0  1  0  0  0  0  0  0  0  0  0
   -4.8472   -0.4078    1.2200 O   0  0  0  0  0  0  0  0  0  0  0  0
   -3.6802   -0.2927    0.4301 C   0  0  2  0  0  0  0  0  0  0  0  0
   -4.0369   -0.4918   -1.0480 C   0  0  2  0  0  0  0  0  0  0  0  0
   -4.0723    0.7478   -1.7103 O   0  0  0  0  0  0  0  0  0  0  0  0
   -5.4153   -1.0965   -0.9787 C   0  0  2  0  0  0  0  0  0  0  0  0
   -6.2155   -0.6946   -2.0609 O   0  0  0  0  0  0  0  0  0  0  0  0
   -2.6978   -1.2922    0.8552 N   0  0  0  0  0  0  0  0  0  0  0  0
   -2.9180   -2.5837    1.2175 C   0  0  0  0  0  0  0  0  0  0  0  0
   -1.7724   -3.2826    1.4497 N   0  0  0  0  0  0  0  0  0  0  0  0
   -0.8134   -2.3701    1.2040 C   0  0  0  0  0  0  0  0  0  0  0  0
   -1.3636   -1.1892    0.8415 C   0  0  0  0  0  0  0  0  0  0  0  0
   -0.6197   -0.1097    0.4988 N   0  0  0  0  0  0  0  0  0  0  0  0
    0.7416   -0.2316    0.5383 C   0  0  0  0  0  0  0  0  0  0  0  0
    1.3235   -1.4181    0.9080 N   0  0  0  0  0  0  0  0  0  0  0  0
    0.5694   -2.5071    1.2450 C   0  0  0  0  0  0  0  0  0  0  0  0
    1.1935   -3.7362    1.6164 N   0  0  0  0  0  0  0  0  0  0  0  0
    1.5676    0.8868    0.1863 C   0  0  0  0  0  0  0  0  0  0  0  0
    2.2669    1.8227   -0.1094 C   0  0  0  0  0  0  0  0  0  0  0  0
    3.1299    2.9577   -0.4696 C   0  0  0  0  0  0  0  0  0  0  0  0
    4.6103    2.5497   -0.6263 C   0  0  1  0  0  0  0  0  0  0  0  0
    5.2411    2.0984    0.7212 C   0  0  0  0  0  0  0  0  0  0  0  0
    6.2527    0.9456    0.5752 C   0  0  0  0  0  0  0  0  0  0  0  0
    7.1304    1.0687   -0.6863 C   0  0  1  0  0  0  0  0  0  0  0  0
    6.2964    1.2290   -1.9897 C   0  0  0  0  0  0  0  0  0  0  0  0
    4.8035    1.5017   -1.7405 C   0  0  0  0  0  0  0  0  0  0  0  0
    8.1490    2.1688   -0.5229 C   0  0  0  0  0  0  0  0  0  0  0  0
    7.8066    3.3786   -0.6332 O   0  0  0  0  0  0  0  0  0  0  0  0
    9.4704    1.8341   -0.2125 O   0  0  0  0  0  0  0  0  0  0  0  0
   10.4844    2.8135   -0.0229 C   0  0  0  0  0  0  0  0  0  0  0  0
  -11.5277   -2.4794    1.1003 H   0  0  0  0  0  0  0  0  0  0  0  0
  -10.8149   -1.8329   -0.4283 H   0  0  0  0  0  0  0  0  0  0  0  0
  -11.0056   -0.7524    1.0139 H   0  0  0  0  0  0  0  0  0  0  0  0
   -9.3595   -2.1515    2.2766 H   0  0  0  0  0  0  0  0  0  0  0  0
   -9.1700   -3.2292    0.8381 H   0  0  0  0  0  0  0  0  0  0  0  0
   -8.6323   -0.5039   -0.0002 H   0  0  0  0  0  0  0  0  0  0  0  0
   -6.3937    0.4497    0.1864 H   0  0  0  0  0  0  0  0  0  0  0  0
   -3.2531    0.7224    0.5915 H   0  0  0  0  0  0  0  0  0  0  0  0
   -3.3362   -1.1861   -1.5700 H   0  0  0  0  0  0  0  0  0  0  0  0
   -3.1285    0.9960   -1.8931 H   0  0  0  0  0  0  0  0  0  0  0  0
   -5.3202   -2.2090   -0.9490 H   0  0  0  0  0  0  0  0  0  0  0  0
   -7.0161   -1.2811   -2.0512 H   0  0  0  0  0  0  0  0  0  0  0  0
   -3.9028   -3.0243    1.2962 H   0  0  0  0  0  0  0  0  0  0  0  0
    0.6236   -4.5726    1.8734 H   0  0  0  0  0  0  0  0  0  0  0  0
    2.2347   -3.8107    1.6353 H   0  0  0  0  0  0  0  0  0  0  0  0
    3.0400    3.7379    0.3161 H   0  0  0  0  0  0  0  0  0  0  0  0
    2.7604    3.3941   -1.4221 H   0  0  0  0  0  0  0  0  0  0  0  0
    5.1480    3.4674   -0.9550 H   0  0  0  0  0  0  0  0  0  0  0  0
    4.4604    1.7710    1.4413 H   0  0  0  0  0  0  0  0  0  0  0  0
    5.7495    2.9698    1.1888 H   0  0  0  0  0  0  0  0  0  0  0  0
    5.6932   -0.0147    0.5240 H   0  0  0  0  0  0  0  0  0  0  0  0
    6.8921    0.8950    1.4840 H   0  0  0  0  0  0  0  0  0  0  0  0
    7.7001    0.1164   -0.7736 H   0  0  0  0  0  0  0  0  0  0  0  0
    6.3779    0.2979   -2.5925 H   0  0  0  0  0  0  0  0  0  0  0  0
    6.7072    2.0439   -2.6263 H   0  0  0  0  0  0  0  0  0  0  0  0
    4.3407    1.8618   -2.6854 H   0  0  0  0  0  0  0  0  0  0  0  0
    4.3004    0.5501   -1.4605 H   0  0  0  0  0  0  0  0  0  0  0  0
   10.2146    3.4810    0.8228 H   0  0  0  0  0  0  0  0  0  0  0  0
   11.4424    2.3057    0.2113 H   0  0  0  0  0  0  0  0  0  0  0  0
   10.6116    3.4131   -0.9490 H   0  0  0  0  0  0  0  0  0  0  0  0
  1  2  1  0
  2  3  1  0
  3  4  1  0
  4  5  2  0
  4  6  1  0
  6  7  1  0
  7  8  1  0
  8  9  1  0
  9 10  1  0
  9 11  1  0
 11 12  1  0
  8 13  1  0
 13 14  1  0
 14 15  2  0
 15 16  1  0
 16 17  2  0
 17 18  1  0
 18 19  2  0
 19 20  1  0
 20 21  2  0
 21 22  1  0
 19 23  1  0
 23 24  3  0
 24 25  1  0
 25 26  1  0
 26 27  1  0
 27 28  1  0
 28 29  1  0
 29 30  1  0
 30 31  1  0
 29 32  1  0
 32 33  2  0
 32 34  1  0
 34 35  1  0
 11  6  1  0
 17 13  1  0
 31 26  1  0
 21 16  1  0
  1 36  1  0
  1 37  1  0
  1 38  1  0
  2 39  1  0
  2 40  1  0
  3 41  1  0
  6 42  1  6
  8 43  1  6
  9 44  1  6
 10 45  1  0
 11 46  1  1
 12 47  1  0
 14 48  1  0
 22 49  1  0
 22 50  1  0
 25 51  1  0
 25 52  1  0
 26 53  1  6
 27 54  1  0
 27 55  1  0
 28 56  1  0
 28 57  1  0
 29 58  1  6
 30 59  1  0
 30 60  1  0
 31 61  1  0
 31 62  1  0
 35 63  1  0
 35 64  1  0
 35 65  1  0
M  END
$$$$
