
     RDKit          3D

 55 58  0  0  0  0  0  0  0  0999 V2000
   -1.6354    0.0637    0.8638 C   0  0  2  0  0  0  0  0  0  0  0  0
   -2.6420   -0.5582    1.8250 C   0  0  0  0  0  0  0  0  0  0  0  0
   -4.0105   -0.2618    1.1830 C   0  0  0  0  0  0  0  0  0  0  0  0
   -3.7163    0.3359   -0.2154 C   0  0  2  0  0  0  0  0  0  0  0  0
   -4.7430   -0.0282   -1.2740 C   0  0  0  0  0  0  0  0  0  0  0  0
   -5.1610    0.9709   -2.3117 C   0  0  0  0  0  0  0  0  0  0  0  0
   -5.2321   -1.1480   -1.3046 O   0  0  0  0  0  0  0  0  0  0  0  0
   -2.2660   -0.1034   -0.5246 C   0  0  2  0  0  0  0  0  0  0  0  0
   -2.2392   -1.5750   -1.0534 C   0  0  0  0  0  0  0  0  0  0  0  0
   -1.5076    0.8256   -1.4962 C   0  0  0  0  0  0  0  0  0  0  0  0
    0.0025    0.4889   -1.5281 C   0  0  0  0  0  0  0  0  0  0  0  0
    0.6624    0.4333   -0.1088 C   0  0  1  0  0  0  0  0  0  0  0  0
   -0.1661   -0.4024    0.9186 C   0  0  1  0  0  0  0  0  0  0  0  0
    0.4098   -0.2332    2.3407 C   0  0  0  0  0  0  0  0  0  0  0  0
    1.9124   -0.1076    2.4038 C   0  0  0  0  0  0  0  0  0  0  0  0
    2.7047    0.1024    1.3283 C   0  0  0  0  0  0  0  0  0  0  0  0
    4.0952    0.6567    1.5742 C   0  0  0  0  0  0  0  0  0  0  0  0
    5.0799    0.3187    0.4461 C   0  0  1  0  0  0  0  0  0  0  0  0
    5.4276   -1.0418    0.5054 O   0  0  0  0  0  0  0  0  0  0  0  0
    4.5329    0.6605   -0.9599 C   0  0  0  0  0  0  0  0  0  0  0  0
    3.0090    0.8973   -1.0302 C   0  0  0  0  0  0  0  0  0  0  0  0
    2.1683   -0.0258   -0.1013 C   0  0  2  0  0  0  0  0  0  0  0  0
    2.3217   -1.5028   -0.5609 C   0  0  0  0  0  0  0  0  0  0  0  0
   -1.6242    1.1546    1.1130 H   0  0  0  0  0  0  0  0  0  0  0  0
   -2.4769   -1.6547    1.9080 H   0  0  0  0  0  0  0  0  0  0  0  0
   -2.5664   -0.1015    2.8359 H   0  0  0  0  0  0  0  0  0  0  0  0
   -4.5815    0.4670    1.7990 H   0  0  0  0  0  0  0  0  0  0  0  0
   -4.5967   -1.2042    1.1221 H   0  0  0  0  0  0  0  0  0  0  0  0
   -3.7297    1.4445   -0.0978 H   0  0  0  0  0  0  0  0  0  0  0  0
   -6.2490    1.1704   -2.2185 H   0  0  0  0  0  0  0  0  0  0  0  0
   -4.9504    0.5639   -3.3229 H   0  0  0  0  0  0  0  0  0  0  0  0
   -4.6099    1.9277   -2.1970 H   0  0  0  0  0  0  0  0  0  0  0  0
   -2.8122   -2.2594   -0.3944 H   0  0  0  0  0  0  0  0  0  0  0  0
   -1.2172   -1.9866   -1.1466 H   0  0  0  0  0  0  0  0  0  0  0  0
   -2.6865   -1.6245   -2.0686 H   0  0  0  0  0  0  0  0  0  0  0  0
   -1.6297    1.8877   -1.1881 H   0  0  0  0  0  0  0  0  0  0  0  0
   -1.9300    0.7311   -2.5203 H   0  0  0  0  0  0  0  0  0  0  0  0
    0.4939    1.2803   -2.1317 H   0  0  0  0  0  0  0  0  0  0  0  0
    0.1445   -0.4601   -2.0773 H   0  0  0  0  0  0  0  0  0  0  0  0
    0.6476    1.4873    0.2571 H   0  0  0  0  0  0  0  0  0  0  0  0
   -0.1287   -1.4804    0.6771 H   0  0  0  0  0  0  0  0  0  0  0  0
   -0.0037    0.6879    2.8063 H   0  0  0  0  0  0  0  0  0  0  0  0
    0.0959   -1.0924    2.9716 H   0  0  0  0  0  0  0  0  0  0  0  0
    2.3333    0.0060    3.3995 H   0  0  0  0  0  0  0  0  0  0  0  0
    4.0171    1.7616    1.6682 H   0  0  0  0  0  0  0  0  0  0  0  0
    4.5083    0.2720    2.5332 H   0  0  0  0  0  0  0  0  0  0  0  0
    6.0014    0.9278    0.6049 H   0  0  0  0  0  0  0  0  0  0  0  0
    6.0535   -1.1500    1.2688 H   0  0  0  0  0  0  0  0  0  0  0  0
    4.8096   -0.1455   -1.6750 H   0  0  0  0  0  0  0  0  0  0  0  0
    5.0371    1.5801   -1.3308 H   0  0  0  0  0  0  0  0  0  0  0  0
    2.8118    1.9590   -0.7603 H   0  0  0  0  0  0  0  0  0  0  0  0
    2.7005    0.7664   -2.0893 H   0  0  0  0  0  0  0  0  0  0  0  0
    1.8944   -1.6683   -1.5684 H   0  0  0  0  0  0  0  0  0  0  0  0
    3.3833   -1.8029   -0.6239 H   0  0  0  0  0  0  0  0  0  0  0  0
    1.8533   -2.2106    0.1512 H   0  0  0  0  0  0  0  0  0  0  0  0
  1  2  1  0
  2  3  1  0
  3  4  1  0
  4  5  1  0
  5  6  1  0
  5  7  2  0
  4  8  1  0
  8  9  1  6
  8 10  1  0
 10 11  1  0
 11 12  1  0
 12 13  1  0
 13 14  1  0
 14 15  1  0
 15 16  2  0
 16 17  1  0
 17 18  1  0
 18 19  1  0
 18 20  1  0
 20 21  1  0
 21 22  1  0
 22 23  1  6
  8  1  1  0
 22 12  1  0
 13  1  1  0
 22 16  1  0
  1 24  1  1
  2 25  1  0
  2 26  1  0
  3 27  1  0
  3 28  1  0
  4 29  1  1
  6 30  1  0
  6 31  1  0
  6 32  1  0
  9 33  1  0
  9 34  1  0
  9 35  1  0
 10 36  1  0
 10 37  1  0
 11 38  1  0
 11 39  1  0
 12 40  1  1
 13 41  1  6
 14 42  1  0
 14 43  1  0
 15 44  1  0
 17 45  1  0
 17 46  1  0
 18 47  1  1
 19 48  1  0
 20 49  1  0
 20 50  1  0
 21 51  1  0
 21 52  1  0
 23 53  1  0
 23 54  1  0
 23 55  1  0
M  END
$$$$
