
     RDKit          3D

 37 39  0  0  0  0  0  0  0  0999 V2000
   -5.4736    0.2145    1.1699 C   0  0  0  0  0  0  0  0  0  0  0  0
   -4.6144    1.2002    0.5248 N   0  0  0  0  0  0  0  0  0  0  0  0
   -4.8430    1.8465   -0.6312 C   0  0  0  0  0  0  0  0  0  0  0  0
   -3.7877    2.6106   -0.9753 N   0  0  0  0  0  0  0  0  0  0  0  0
   -2.8621    2.4451   -0.0403 N   0  0  0  0  0  0  0  0  0  0  0  0
   -3.3678    1.5808    0.8587 C   0  0  0  0  0  0  0  0  0  0  0  0
   -2.4668    1.0148    2.3024 S   0  0  0  0  0  0  0  0  0  0  0  0
   -1.7242   -0.3552    1.4165 C   0  0  0  0  0  0  0  0  0  0  0  0
   -2.3246   -1.6150    1.4469 C   0  0  0  0  0  0  0  0  0  0  0  0
   -1.7489   -2.6816    0.7560 C   0  0  0  0  0  0  0  0  0  0  0  0
   -0.5615   -2.5060    0.0281 C   0  0  0  0  0  0  0  0  0  0  0  0
    0.0340   -3.6469   -0.6052 N   0  0  0  0  0  0  0  0  0  0  0  0
    0.0439   -1.2244   -0.0183 C   0  0  0  0  0  0  0  0  0  0  0  0
   -0.5431   -0.1631    0.6934 C   0  0  0  0  0  0  0  0  0  0  0  0
    1.2504   -0.9497   -0.8307 C   0  0  0  0  0  0  0  0  0  0  0  0
    1.3359   -1.4268   -1.9941 O   0  0  0  0  0  0  0  0  0  0  0  0
    2.3037   -0.1275   -0.2989 N   0  0  0  0  0  0  0  0  0  0  0  0
    3.4157    0.3750   -1.0550 C   0  0  0  0  0  0  0  0  0  0  0  0
    4.4347    1.0491   -0.4797 N   0  0  0  0  0  0  0  0  0  0  0  0
    5.3553    1.4548   -1.3962 C   0  0  0  0  0  0  0  0  0  0  0  0
    6.5965    2.1827   -0.9971 C   0  0  0  0  0  0  0  0  0  0  0  0
    5.0805    1.0962   -2.7133 C   0  0  0  0  0  0  0  0  0  0  0  0
    3.6220    0.2596   -2.7243 S   0  0  0  0  0  0  0  0  0  0  0  0
   -5.3076    0.2178    2.2675 H   0  0  0  0  0  0  0  0  0  0  0  0
   -5.2499   -0.7944    0.7655 H   0  0  0  0  0  0  0  0  0  0  0  0
   -6.5402    0.4548    0.9750 H   0  0  0  0  0  0  0  0  0  0  0  0
   -5.7488    1.7591   -1.2172 H   0  0  0  0  0  0  0  0  0  0  0  0
   -3.2337   -1.7723    2.0128 H   0  0  0  0  0  0  0  0  0  0  0  0
   -2.2202   -3.6554    0.8032 H   0  0  0  0  0  0  0  0  0  0  0  0
    1.0133   -3.6344   -0.9632 H   0  0  0  0  0  0  0  0  0  0  0  0
   -0.4707   -4.5611   -0.6296 H   0  0  0  0  0  0  0  0  0  0  0  0
   -0.1018    0.8259    0.6606 H   0  0  0  0  0  0  0  0  0  0  0  0
    2.2760    0.1104    0.7181 H   0  0  0  0  0  0  0  0  0  0  0  0
    7.4523    1.4762   -0.9843 H   0  0  0  0  0  0  0  0  0  0  0  0
    6.4743    2.6231    0.0150 H   0  0  0  0  0  0  0  0  0  0  0  0
    6.8070    3.0005   -1.7182 H   0  0  0  0  0  0  0  0  0  0  0  0
    5.6950    1.3158   -3.5764 H   0  0  0  0  0  0  0  0  0  0  0  0
  1  2  1  0
  2  3  1  0
  3  4  2  0
  4  5  1  0
  5  6  2  0
  6  7  1  0
  7  8  1  0
  8  9  2  0
  9 10  1  0
 10 11  2  0
 11 12  1  0
 11 13  1  0
 13 14  2  0
 13 15  1  0
 15 16  2  0
 15 17  1  0
 17 18  1  0
 18 19  2  0
 19 20  1  0
 20 21  1  0
 20 22  2  0
 22 23  1  0
  6  2  1  0
 14  8  1  0
 23 18  1  0
  1 24  1  0
  1 25  1  0
  1 26  1  0
  3 27  1  0
  9 28  1  0
 10 29  1  0
 12 30  1  0
 12 31  1  0
 14 32  1  0
 17 33  1  0
 21 34  1  0
 21 35  1  0
 21 36  1  0
 22 37  1  0
M  END
$$$$
