
     RDKit          3D

 60 59  0  0  0  0  0  0  0  0999 V2000
   -6.2035    1.6565   -2.1483 C   0  0  0  0  0  0  0  0  0  0  0  0
   -7.0965    1.9603   -0.9454 C   0  0  0  0  0  0  0  0  0  0  0  0
   -6.9196    0.9423    0.2007 C   0  0  0  0  0  0  0  0  0  0  0  0
   -6.0427    1.4551    1.3589 C   0  0  0  0  0  0  0  0  0  0  0  0
   -4.5644    1.7032    1.0029 C   0  0  0  0  0  0  0  0  0  0  0  0
   -3.7924    0.4649    0.5098 C   0  0  0  0  0  0  0  0  0  0  0  0
   -3.6142   -0.6032    1.6007 C   0  0  0  0  0  0  0  0  0  0  0  0
   -2.8622   -1.8481    1.0989 C   0  0  0  0  0  0  0  0  0  0  0  0
   -1.3863   -1.5766    0.7375 C   0  0  0  0  0  0  0  0  0  0  0  0
   -1.1654   -1.5142   -0.7844 C   0  0  0  0  0  0  0  0  0  0  0  0
    0.2400   -1.0180   -1.1580 C   0  0  0  0  0  0  0  0  0  0  0  0
    1.3430   -2.0146   -0.7597 C   0  0  0  0  0  0  0  0  0  0  0  0
    2.7112   -1.6574   -1.3627 C   0  0  0  0  0  0  0  0  0  0  0  0
    3.3463   -0.4261   -0.6947 C   0  0  0  0  0  0  0  0  0  0  0  0
    4.6868   -0.0220   -1.3350 C   0  0  0  0  0  0  0  0  0  0  0  0
    5.8063   -1.0788   -1.2363 C   0  0  0  0  0  0  0  0  0  0  0  0
    6.1617   -1.5005    0.1978 C   0  0  0  0  0  0  0  0  0  0  0  0
    6.6254   -0.3392    1.0216 C   0  0  0  0  0  0  0  0  0  0  0  0
    5.8723    0.1336    1.9161 O   0  0  0  0  0  0  0  0  0  0  0  0
    7.8778    0.2237    0.7670 O   0  0  0  0  0  0  0  0  0  0  0  0
    8.5742    1.7047    1.6677 Al  0  0  0  0  0  3  0  0  0  0  0  0
   10.2396    2.3396    1.2342 O   0  0  0  0  0  0  0  0  0  0  0  0
    7.5944    2.5267    2.9832 O   0  0  0  0  0  0  0  0  0  0  0  0
   -5.1316    1.7469   -1.8841 H   0  0  0  0  0  0  0  0  0  0  0  0
   -6.4216    2.3805   -2.9614 H   0  0  0  0  0  0  0  0  0  0  0  0
   -6.4021    0.6318   -2.5283 H   0  0  0  0  0  0  0  0  0  0  0  0
   -8.1519    1.9242   -1.2940 H   0  0  0  0  0  0  0  0  0  0  0  0
   -6.9066    2.9975   -0.5935 H   0  0  0  0  0  0  0  0  0  0  0  0
   -6.5515   -0.0363   -0.1727 H   0  0  0  0  0  0  0  0  0  0  0  0
   -7.9258    0.7379    0.6280 H   0  0  0  0  0  0  0  0  0  0  0  0
   -6.1077    0.7381    2.2034 H   0  0  0  0  0  0  0  0  0  0  0  0
   -6.4743    2.4081    1.7359 H   0  0  0  0  0  0  0  0  0  0  0  0
   -4.0515    2.1060    1.9034 H   0  0  0  0  0  0  0  0  0  0  0  0
   -4.5037    2.4998    0.2324 H   0  0  0  0  0  0  0  0  0  0  0  0
   -2.7899    0.8179    0.1886 H   0  0  0  0  0  0  0  0  0  0  0  0
   -4.2850    0.0217   -0.3794 H   0  0  0  0  0  0  0  0  0  0  0  0
   -3.0774   -0.1682    2.4720 H   0  0  0  0  0  0  0  0  0  0  0  0
   -4.6109   -0.9420    1.9516 H   0  0  0  0  0  0  0  0  0  0  0  0
   -2.8860   -2.6000    1.9183 H   0  0  0  0  0  0  0  0  0  0  0  0
   -3.4112   -2.3013    0.2439 H   0  0  0  0  0  0  0  0  0  0  0  0
   -0.7698   -2.4057    1.1470 H   0  0  0  0  0  0  0  0  0  0  0  0
   -1.0307   -0.6386    1.2178 H   0  0  0  0  0  0  0  0  0  0  0  0
   -1.3393   -2.5190   -1.2283 H   0  0  0  0  0  0  0  0  0  0  0  0
   -1.9035   -0.8224   -1.2417 H   0  0  0  0  0  0  0  0  0  0  0  0
    0.4170   -0.0331   -0.6762 H   0  0  0  0  0  0  0  0  0  0  0  0
    0.2672   -0.8662   -2.2592 H   0  0  0  0  0  0  0  0  0  0  0  0
    1.4315   -2.0672    0.3468 H   0  0  0  0  0  0  0  0  0  0  0  0
    1.0624   -3.0267   -1.1254 H   0  0  0  0  0  0  0  0  0  0  0  0
    2.6107   -1.4897   -2.4574 H   0  0  0  0  0  0  0  0  0  0  0  0
    3.3764   -2.5339   -1.2137 H   0  0  0  0  0  0  0  0  0  0  0  0
    3.4769   -0.6056    0.3930 H   0  0  0  0  0  0  0  0  0  0  0  0
    2.6615    0.4410   -0.7997 H   0  0  0  0  0  0  0  0  0  0  0  0
    4.5153    0.2084   -2.4091 H   0  0  0  0  0  0  0  0  0  0  0  0
    5.0351    0.9208   -0.8604 H   0  0  0  0  0  0  0  0  0  0  0  0
    6.7177   -0.6654   -1.7215 H   0  0  0  0  0  0  0  0  0  0  0  0
    5.5255   -1.9800   -1.8205 H   0  0  0  0  0  0  0  0  0  0  0  0
    6.9832   -2.2471    0.1541 H   0  0  0  0  0  0  0  0  0  0  0  0
    5.2975   -2.0022    0.6825 H   0  0  0  0  0  0  0  0  0  0  0  0
   10.0718    3.0060    0.5213 H   0  0  0  0  0  0  0  0  0  0  0  0
    7.8504    2.0529    3.8141 H   0  0  0  0  0  0  0  0  0  0  0  0
  1  2  1  0
  2  3  1  0
  3  4  1  0
  4  5  1  0
  5  6  1  0
  6  7  1  0
  7  8  1  0
  8  9  1  0
  9 10  1  0
 10 11  1  0
 11 12  1  0
 12 13  1  0
 13 14  1  0
 14 15  1  0
 15 16  1  0
 16 17  1  0
 17 18  1  0
 18 19  2  0
 18 20  1  0
 20 21  1  0
 21 22  1  0
 21 23  1  0
  1 24  1  0
  1 25  1  0
  1 26  1  0
  2 27  1  0
  2 28  1  0
  3 29  1  0
  3 30  1  0
  4 31  1  0
  4 32  1  0
  5 33  1  0
  5 34  1  0
  6 35  1  0
  6 36  1  0
  7 37  1  0
  7 38  1  0
  8 39  1  0
  8 40  1  0
  9 41  1  0
  9 42  1  0
 10 43  1  0
 10 44  1  0
 11 45  1  0
 11 46  1  0
 12 47  1  0
 12 48  1  0
 13 49  1  0
 13 50  1  0
 14 51  1  0
 14 52  1  0
 15 53  1  0
 15 54  1  0
 16 55  1  0
 16 56  1  0
 17 57  1  0
 17 58  1  0
 22 59  1  0
 23 60  1  0
M  END
$$$$
