
     RDKit          3D

 59 60  0  0  0  0  0  0  0  0999 V2000
    0.0000    0.0000    0.0000 Na  0  0  0  0  0 15  0  0  0  0  0  0
    1.5973    0.4023    1.4524 C   0  0  1  0  0  0  0  0  0  0  0  0
    0.6142    1.4560    1.9523 C   0  0  0  0  0  0  0  0  0  0  0  0
   -0.2139    1.8702    0.7419 C   0  0  1  0  0  0  0  0  0  0  0  0
    0.4444    2.9113    0.0661 O   0  0  0  0  0  0  0  0  0  0  0  0
   -0.2808    0.6198   -0.1500 C   0  0  2  0  0  0  0  0  0  0  0  0
   -1.4773   -0.2382    0.2012 C   0  0  0  0  0  0  0  0  0  0  0  0
   -1.8431   -1.2660   -0.5824 C   0  0  0  0  0  0  0  0  0  0  0  0
   -3.0417   -2.1389   -0.2769 C   0  0  1  0  0  0  0  0  0  0  0  0
   -2.8384   -2.8206    0.9373 O   0  0  0  0  0  0  0  0  0  0  0  0
   -4.3859   -1.3522   -0.2812 C   0  0  0  0  0  0  0  0  0  0  0  0
   -4.6055   -0.6495   -1.6362 C   0  0  0  0  0  0  0  0  0  0  0  0
   -5.5658   -2.3006    0.0326 C   0  0  0  0  0  0  0  0  0  0  0  0
   -6.8149   -1.5588    0.2540 C   0  0  0  0  0  0  0  0  0  0  0  0
   -7.8388   -0.9488    0.4349 C   0  0  0  0  0  0  0  0  0  0  0  0
   -9.0803   -0.2069    0.6533 C   0  0  0  0  0  0  0  0  0  0  0  0
    1.0287   -0.1452    0.1194 C   0  0  1  0  0  0  0  0  0  0  0  0
    2.1009    0.2091   -0.8579 C   0  0  0  0  0  0  0  0  0  0  0  0
    2.1604   -0.0660   -2.2247 C   0  0  0  0  0  0  0  0  0  0  0  0
    3.2900    0.3572   -2.9428 C   0  0  0  0  0  0  0  0  0  0  0  0
    4.3343    1.0386   -2.2875 C   0  0  0  0  0  0  0  0  0  0  0  0
    4.2546    1.3066   -0.9052 C   0  0  0  0  0  0  0  0  0  0  0  0
    5.3805    2.0023   -0.1858 C   0  0  0  0  0  0  0  0  0  0  0  0
    6.5347    1.0431    0.1379 C   0  0  0  0  0  0  0  0  0  0  0  0
    6.1441   -0.0074    1.1853 C   0  0  0  0  0  0  0  0  0  0  0  0
    7.3240   -0.8550    1.5409 C   0  0  0  0  0  0  0  0  0  0  0  0
    8.1678   -0.4731    2.5761 O   0  0  0  0  0  1  0  0  0  0  0  0
    7.5823   -1.8924    0.8756 O   0  0  0  0  0  0  0  0  0  0  0  0
    3.1162    0.8640   -0.2209 C   0  0  0  0  0  0  0  0  0  0  0  0
    2.8539    0.9999    1.1259 O   0  0  0  0  0  0  0  0  0  0  0  0
    1.7445   -0.4059    2.2017 H   0  0  0  0  0  0  0  0  0  0  0  0
   -0.0554    0.9975    2.7132 H   0  0  0  0  0  0  0  0  0  0  0  0
    1.1343    2.3229    2.4158 H   0  0  0  0  0  0  0  0  0  0  0  0
   -1.2228    2.2175    1.0680 H   0  0  0  0  0  0  0  0  0  0  0  0
   -0.2106    3.2925   -0.5751 H   0  0  0  0  0  0  0  0  0  0  0  0
   -0.3746    0.9194   -1.2190 H   0  0  0  0  0  0  0  0  0  0  0  0
   -2.0597   -0.0062    1.0885 H   0  0  0  0  0  0  0  0  0  0  0  0
   -1.2640   -1.4868   -1.4756 H   0  0  0  0  0  0  0  0  0  0  0  0
   -3.0972   -2.9083   -1.0780 H   0  0  0  0  0  0  0  0  0  0  0  0
   -2.9142   -2.1605    1.6747 H   0  0  0  0  0  0  0  0  0  0  0  0
   -4.3455   -0.5707    0.5106 H   0  0  0  0  0  0  0  0  0  0  0  0
   -5.5619   -0.0857   -1.6364 H   0  0  0  0  0  0  0  0  0  0  0  0
   -3.7951    0.0828   -1.8345 H   0  0  0  0  0  0  0  0  0  0  0  0
   -4.6281   -1.3920   -2.4625 H   0  0  0  0  0  0  0  0  0  0  0  0
   -5.7143   -3.0210   -0.8003 H   0  0  0  0  0  0  0  0  0  0  0  0
   -5.3600   -2.8811    0.9561 H   0  0  0  0  0  0  0  0  0  0  0  0
   -9.1744    0.0483    1.7289 H   0  0  0  0  0  0  0  0  0  0  0  0
   -9.0644    0.7254    0.0522 H   0  0  0  0  0  0  0  0  0  0  0  0
   -9.9438   -0.8313    0.3444 H   0  0  0  0  0  0  0  0  0  0  0  0
    0.9011   -1.2503    0.1546 H   0  0  0  0  0  0  0  0  0  0  0  0
    1.3554   -0.5939   -2.7194 H   0  0  0  0  0  0  0  0  0  0  0  0
    3.3604    0.1551   -4.0036 H   0  0  0  0  0  0  0  0  0  0  0  0
    5.2024    1.3513   -2.8543 H   0  0  0  0  0  0  0  0  0  0  0  0
    5.0130    2.4804    0.7485 H   0  0  0  0  0  0  0  0  0  0  0  0
    5.7677    2.8209   -0.8307 H   0  0  0  0  0  0  0  0  0  0  0  0
    6.8758    0.5392   -0.7936 H   0  0  0  0  0  0  0  0  0  0  0  0
    7.3850    1.6448    0.5283 H   0  0  0  0  0  0  0  0  0  0  0  0
    5.3355   -0.6597    0.7907 H   0  0  0  0  0  0  0  0  0  0  0  0
    5.7690    0.4949    2.1032 H   0  0  0  0  0  0  0  0  0  0  0  0
  2  3  1  0
  3  4  1  0
  4  5  1  0
  4  6  1  0
  6  7  1  0
  7  8  2  0
  8  9  1  0
  9 10  1  0
  9 11  1  0
 11 12  1  0
 11 13  1  0
 13 14  1  0
 14 15  3  0
 15 16  1  0
  6 17  1  0
 17 18  1  0
 18 19  2  0
 19 20  1  0
 20 21  2  0
 21 22  1  0
 22 23  1  0
 23 24  1  0
 24 25  1  0
 25 26  1  0
 26 27  1  0
 26 28  2  0
 22 29  2  0
 29 30  1  0
 17  2  1  0
 29 18  1  0
 30  2  1  0
  2 31  1  1
  3 32  1  0
  3 33  1  0
  4 34  1  1
  5 35  1  0
  6 36  1  6
  7 37  1  0
  8 38  1  0
  9 39  1  6
 10 40  1  0
 11 41  1  0
 12 42  1  0
 12 43  1  0
 12 44  1  0
 13 45  1  0
 13 46  1  0
 16 47  1  0
 16 48  1  0
 16 49  1  0
 17 50  1  1
 19 51  1  0
 20 52  1  0
 21 53  1  0
 23 54  1  0
 23 55  1  0
 24 56  1  0
 24 57  1  0
 25 58  1  0
 25 59  1  0
M  CHG  2   1   1  27  -1
M  END
$$$$
