
     RDKit          3D

 42 45  0  0  0  0  0  0  0  0999 V2000
   -1.3279    6.5129   -0.6861 C   0  0  0  0  0  0  0  0  0  0  0  0
   -1.0808    5.1234   -0.1960 C   0  0  0  0  0  0  0  0  0  0  0  0
   -0.4184    4.9517    0.8622 O   0  0  0  0  0  0  0  0  0  0  0  0
   -1.6760    4.0105   -0.8787 N   0  0  0  0  0  0  0  0  0  0  0  0
   -1.3526    2.6366   -0.6216 C   0  0  0  0  0  0  0  0  0  0  0  0
   -2.1638    1.6241   -0.9917 N   0  0  0  0  0  0  0  0  0  0  0  0
   -1.4980    0.5106   -0.6192 C   0  0  0  0  0  0  0  0  0  0  0  0
   -0.2899    0.8773   -0.0374 C   0  0  0  0  0  0  0  0  0  0  0  0
   -0.2008    2.2181   -0.0579 N   0  0  0  0  0  0  0  0  0  0  0  0
    0.7429    0.0029    0.5549 C   0  0  0  0  0  0  0  0  0  0  0  0
    0.3870   -1.0189    1.4536 C   0  0  0  0  0  0  0  0  0  0  0  0
    1.3680   -1.8390    2.0199 C   0  0  0  0  0  0  0  0  0  0  0  0
    2.7141   -1.6328    1.7066 C   0  0  0  0  0  0  0  0  0  0  0  0
    3.6810   -2.4205    2.2477 N   0  0  0  0  0  0  0  0  0  0  0  0
    4.9932   -2.2237    1.9516 C   0  0  0  0  0  0  0  0  0  0  0  0
    5.3574   -1.1950    1.0781 C   0  0  0  0  0  0  0  0  0  0  0  0
    4.3952   -0.4035    0.5340 N   0  0  0  0  0  0  0  0  0  0  0  0
    3.0812   -0.5954    0.8252 C   0  0  0  0  0  0  0  0  0  0  0  0
    2.0982    0.2226    0.2588 C   0  0  0  0  0  0  0  0  0  0  0  0
   -1.9804   -0.8544   -0.9194 C   0  0  0  0  0  0  0  0  0  0  0  0
   -1.1058   -1.8976   -0.9452 N   0  0  0  0  0  0  0  0  0  0  0  0
   -1.4952   -3.1702   -1.2277 C   0  0  0  0  0  0  0  0  0  0  0  0
   -0.4814   -4.2704   -1.2258 C   0  0  0  0  0  0  0  0  0  0  0  0
   -2.8403   -3.4331   -1.5216 C   0  0  0  0  0  0  0  0  0  0  0  0
   -3.2564   -4.6920   -1.8111 F   0  0  0  0  0  0  0  0  0  0  0  0
   -3.7576   -2.3809   -1.5167 C   0  0  0  0  0  0  0  0  0  0  0  0
   -3.3317   -1.0853   -1.2183 C   0  0  0  0  0  0  0  0  0  0  0  0
   -1.3117    6.5311   -1.7960 H   0  0  0  0  0  0  0  0  0  0  0  0
   -2.3198    6.8596   -0.3291 H   0  0  0  0  0  0  0  0  0  0  0  0
   -0.5428    7.2016   -0.3079 H   0  0  0  0  0  0  0  0  0  0  0  0
   -2.4287    4.2071   -1.5763 H   0  0  0  0  0  0  0  0  0  0  0  0
    0.6005    2.7944    0.2809 H   0  0  0  0  0  0  0  0  0  0  0  0
   -0.6507   -1.1777    1.7200 H   0  0  0  0  0  0  0  0  0  0  0  0
    1.0799   -2.6278    2.7036 H   0  0  0  0  0  0  0  0  0  0  0  0
    5.7487   -2.8608    2.3915 H   0  0  0  0  0  0  0  0  0  0  0  0
    6.3978   -1.0271    0.8343 H   0  0  0  0  0  0  0  0  0  0  0  0
    2.3867    1.0158   -0.4211 H   0  0  0  0  0  0  0  0  0  0  0  0
   -0.4037   -4.7104   -2.2422 H   0  0  0  0  0  0  0  0  0  0  0  0
    0.5155   -3.8809   -0.9275 H   0  0  0  0  0  0  0  0  0  0  0  0
   -0.7833   -5.0593   -0.5052 H   0  0  0  0  0  0  0  0  0  0  0  0
   -4.7992   -2.5684   -1.7439 H   0  0  0  0  0  0  0  0  0  0  0  0
   -4.0503   -0.2752   -1.2147 H   0  0  0  0  0  0  0  0  0  0  0  0
  1  2  1  0
  2  3  2  0
  2  4  1  0
  4  5  1  0
  5  6  2  0
  6  7  1  0
  7  8  2  0
  8  9  1  0
  8 10  1  0
 10 11  2  0
 11 12  1  0
 12 13  2  0
 13 14  1  0
 14 15  2  0
 15 16  1  0
 16 17  2  0
 17 18  1  0
 18 19  2  0
  7 20  1  0
 20 21  2  0
 21 22  1  0
 22 23  1  0
 22 24  2  0
 24 25  1  0
 24 26  1  0
 26 27  2  0
  9  5  1  0
 19 10  1  0
 27 20  1  0
 18 13  1  0
  1 28  1  0
  1 29  1  0
  1 30  1  0
  4 31  1  0
  9 32  1  0
 11 33  1  0
 12 34  1  0
 15 35  1  0
 16 36  1  0
 19 37  1  0
 23 38  1  0
 23 39  1  0
 23 40  1  0
 26 41  1  0
 27 42  1  0
M  END
$$$$
