
     RDKit          2D

144143  0  0  0  0  0  0  0  0999 V2000
   -1.8481   -1.2990    0.0000 C   0  0  0  0  0  0  0  0  0  0  0  0
   -2.5981    0.0000    0.0000 C   0  0  0  0  0  0  0  0  0  0  0  0
   -1.2990    0.7500    0.0000 N   0  0  0  0  0  0  0  0  0  0  0  0
    0.0000    0.0000    0.0000 C   0  0  0  0  0  0  0  0  0  0  0  0
   -0.0000   -0.8857    0.0000 O   0  0  0  0  0  0  0  0  0  0  0  0
    1.2990    0.7500    0.0000 C   0  0  0  0  0  0  0  0  0  0  0  0
    2.5981    1.5000    0.0000 C   0  0  0  0  0  0  0  0  0  0  0  0
    3.8971    2.2500    0.0000 C   0  0  0  0  0  0  0  0  0  0  0  0
    5.1962    3.0000    0.0000 C   0  0  0  0  0  0  0  0  0  0  0  0
    6.4952    3.7500    0.0000 N   0  0  0  0  0  0  0  0  0  0  0  0
    7.7942    3.0000    0.0000 C   0  0  0  0  0  0  0  0  0  0  0  0
    7.7942    1.5000    0.0000 N   0  0  0  0  0  0  0  0  0  0  0  0
    9.0933    3.7500    0.0000 N   0  0  0  0  0  0  0  0  0  0  0  0
    2.0490   -0.5490    0.0000 N   0  0  0  0  0  0  0  0  0  0  0  0
    3.5490   -0.5490    0.0000 C   0  0  0  0  0  0  0  0  0  0  0  0
    4.2071    0.3243    0.0000 O   0  0  0  0  0  0  0  0  0  0  0  0
    4.2990   -1.8481    0.0000 C   0  0  0  0  0  0  0  0  0  0  0  0
    5.0490   -3.1471    0.0000 C   0  0  0  0  0  0  0  0  0  0  0  0
    5.7990   -4.4462    0.0000 C   0  0  0  0  0  0  0  0  0  0  0  0
    6.5490   -5.7452    0.0000 C   0  0  0  0  0  0  0  0  0  0  0  0
    7.2990   -7.0442    0.0000 N   0  0  0  0  0  0  0  0  0  0  0  0
    8.7990   -7.0442    0.0000 C   0  0  0  0  0  0  0  0  0  0  0  0
    9.5490   -5.7452    0.0000 N   0  0  0  0  0  0  0  0  0  0  0  0
    9.5490   -8.3433    0.0000 N   0  0  0  0  0  0  0  0  0  0  0  0
    5.5981   -1.0981    0.0000 N   0  0  0  0  0  0  0  0  0  0  0  0
    6.8971   -1.8481    0.0000 C   0  0  0  0  0  0  0  0  0  0  0  0
    7.0304   -2.9334    0.0000 O   0  0  0  0  0  0  0  0  0  0  0  0
    8.1962   -1.0981    0.0000 C   0  0  0  0  0  0  0  0  0  0  0  0
    9.4952   -0.3481    0.0000 C   0  0  0  0  0  0  0  0  0  0  0  0
   10.7942    0.4019    0.0000 C   0  0  0  0  0  0  0  0  0  0  0  0
   12.0933    1.1519    0.0000 C   0  0  0  0  0  0  0  0  0  0  0  0
   13.3923    1.9019    0.0000 N   0  0  0  0  0  0  0  0  0  0  0  0
   14.6913    1.1519    0.0000 C   0  0  0  0  0  0  0  0  0  0  0  0
   14.6913   -0.3481    0.0000 N   0  0  0  0  0  0  0  0  0  0  0  0
   15.9904    1.9019    0.0000 N   0  0  0  0  0  0  0  0  0  0  0  0
    8.9462   -2.3971    0.0000 N   0  0  0  0  0  0  0  0  0  0  0  0
   10.4462   -2.3971    0.0000 C   0  0  0  0  0  0  0  0  0  0  0  0
   11.2586   -1.3190    0.0000 O   0  0  0  0  0  0  0  0  0  0  0  0
   11.1962   -3.6962    0.0000 C   0  0  0  0  0  0  0  0  0  0  0  0
   11.9462   -4.9952    0.0000 C   0  0  0  0  0  0  0  0  0  0  0  0
   12.4952   -2.9462    0.0000 N   0  0  0  0  0  0  0  0  0  0  0  0
   13.7942   -3.6962    0.0000 C   0  0  0  0  0  0  0  0  0  0  0  0
   13.7942   -5.1962    0.0000 O   0  0  0  0  0  0  0  0  0  0  0  0
   15.0933   -2.9462    0.0000 C   0  0  0  0  0  0  0  0  0  0  0  0
   16.3923   -2.1962    0.0000 C   0  0  0  0  0  0  0  0  0  0  0  0
   17.6913   -1.4462    0.0000 S   0  0  0  0  0  0  0  0  0  0  0  0
   18.9904   -2.1962    0.0000 S   0  0  0  0  0  0  0  0  0  0  0  0
   20.2894   -1.4462    0.0000 C   0  0  0  0  0  0  0  0  0  0  0  0
   21.5885   -0.6962    0.0000 C   0  0  0  0  0  0  0  0  0  0  0  0
   22.3385   -1.9952    0.0000 N   0  0  0  0  0  0  0  0  0  0  0  0
   22.8875    0.0538    0.0000 C   0  0  0  0  0  0  0  0  0  0  0  0
   22.8875    1.5538    0.0000 O   0  0  0  0  0  0  0  0  0  0  0  0
   24.1865   -0.6962    0.0000 O   0  0  0  0  0  0  0  0  0  0  0  0
   15.8433   -4.2452    0.0000 N   0  0  0  0  0  0  0  0  0  0  0  0
   17.3433   -4.2452    0.0000 C   0  0  0  0  0  0  0  0  0  0  0  0
   18.0933   -5.5442    0.0000 C   0  0  0  0  0  0  0  0  0  0  0  0
   18.0933   -2.9462    0.0000 O   0  0  0  0  0  0  0  0  0  0  0  0
   -3.3481    1.2990    0.0000 C   0  0  0  0  0  0  0  0  0  0  0  0
   -2.6900    2.1723    0.0000 O   0  0  0  0  0  0  0  0  0  0  0  0
   -4.8481    1.2990    0.0000 N   0  0  0  0  0  0  0  0  0  0  0  0
   -5.5981    2.5981    0.0000 C   0  0  0  0  0  0  0  0  0  0  0  0
   -6.8971    1.8481    0.0000 C   0  0  0  0  0  0  0  0  0  0  0  0
   -8.1962    1.0981    0.0000 C   0  0  0  0  0  0  0  0  0  0  0  0
   -9.4952    0.3481    0.0000 C   0  0  0  0  0  0  0  0  0  0  0  0
  -10.7942   -0.4019    0.0000 N   0  0  0  0  0  0  0  0  0  0  0  0
  -10.7942   -1.9019    0.0000 C   0  0  0  0  0  0  0  0  0  0  0  0
   -9.4952   -2.6519    0.0000 N   0  0  0  0  0  0  0  0  0  0  0  0
  -12.0933   -2.6519    0.0000 N   0  0  0  0  0  0  0  0  0  0  0  0
   -4.2990    3.3481    0.0000 C   0  0  0  0  0  0  0  0  0  0  0  0
   -4.2990    4.8481    0.0000 N   0  0  0  0  0  0  0  0  0  0  0  0
   -3.2925    2.9208    0.0000 O   0  0  0  0  0  0  0  0  0  0  0  0
   -1.0981   -2.5981    0.0000 H   0  0  0  0  0  0  0  0  0  0  0  0
   -3.1471   -2.0490    0.0000 H   0  0  0  0  0  0  0  0  0  0  0  0
   -0.9966   -1.0549    0.0000 H   0  0  0  0  0  0  0  0  0  0  0  0
   -3.8971   -0.7500    0.0000 H   0  0  0  0  0  0  0  0  0  0  0  0
   -1.2990    2.2500    0.0000 H   0  0  0  0  0  0  0  0  0  0  0  0
    0.5490    2.0490    0.0000 H   0  0  0  0  0  0  0  0  0  0  0  0
    1.8481    2.7990    0.0000 H   0  0  0  0  0  0  0  0  0  0  0  0
    3.3577    0.7134    0.0000 H   0  0  0  0  0  0  0  0  0  0  0  0
    4.7999    1.0521    0.0000 H   0  0  0  0  0  0  0  0  0  0  0  0
    3.1471    3.5490    0.0000 H   0  0  0  0  0  0  0  0  0  0  0  0
    4.4462    4.2990    0.0000 H   0  0  0  0  0  0  0  0  0  0  0  0
    5.9462    1.7010    0.0000 H   0  0  0  0  0  0  0  0  0  0  0  0
    6.4952    5.2500    0.0000 H   0  0  0  0  0  0  0  0  0  0  0  0
    9.1750    0.9139    0.0000 H   0  0  0  0  0  0  0  0  0  0  0  0
    6.4952    0.7500    0.0000 H   0  0  0  0  0  0  0  0  0  0  0  0
   10.3923    3.0000    0.0000 H   0  0  0  0  0  0  0  0  0  0  0  0
    1.2990   -1.8481    0.0000 H   0  0  0  0  0  0  0  0  0  0  0  0
    3.0000   -2.5981    0.0000 H   0  0  0  0  0  0  0  0  0  0  0  0
    3.7500   -3.8971    0.0000 H   0  0  0  0  0  0  0  0  0  0  0  0
    6.1002   -2.8458    0.0000 H   0  0  0  0  0  0  0  0  0  0  0  0
    4.5000   -5.1962    0.0000 H   0  0  0  0  0  0  0  0  0  0  0  0
    7.1798   -3.8601    0.0000 H   0  0  0  0  0  0  0  0  0  0  0  0
    5.2500   -6.4952    0.0000 H   0  0  0  0  0  0  0  0  0  0  0  0
    7.8481   -4.9952    0.0000 H   0  0  0  0  0  0  0  0  0  0  0  0
    6.5490   -8.3433    0.0000 H   0  0  0  0  0  0  0  0  0  0  0  0
   11.0379   -5.9280    0.0000 H   0  0  0  0  0  0  0  0  0  0  0  0
    8.7990   -4.4462    0.0000 H   0  0  0  0  0  0  0  0  0  0  0  0
   11.0490   -8.3433    0.0000 H   0  0  0  0  0  0  0  0  0  0  0  0
    5.5981    0.4019    0.0000 H   0  0  0  0  0  0  0  0  0  0  0  0
    7.4462    0.2010    0.0000 H   0  0  0  0  0  0  0  0  0  0  0  0
   10.4330   -1.3191    0.0000 H   0  0  0  0  0  0  0  0  0  0  0  0
    8.9091    1.0327    0.0000 H   0  0  0  0  0  0  0  0  0  0  0  0
   11.6970   -0.7960    0.0000 H   0  0  0  0  0  0  0  0  0  0  0  0
   10.0442    1.7010    0.0000 H   0  0  0  0  0  0  0  0  0  0  0  0
   11.3433    2.4510    0.0000 H   0  0  0  0  0  0  0  0  0  0  0  0
   12.8433   -0.1471    0.0000 H   0  0  0  0  0  0  0  0  0  0  0  0
   13.3923    3.4019    0.0000 H   0  0  0  0  0  0  0  0  0  0  0  0
   16.0721   -0.9341    0.0000 H   0  0  0  0  0  0  0  0  0  0  0  0
   13.3923   -1.0981    0.0000 H   0  0  0  0  0  0  0  0  0  0  0  0
   17.2894    1.1519    0.0000 H   0  0  0  0  0  0  0  0  0  0  0  0
    8.1962   -3.6962    0.0000 H   0  0  0  0  0  0  0  0  0  0  0  0
    9.8971   -4.4462    0.0000 H   0  0  0  0  0  0  0  0  0  0  0  0
   12.6962   -6.2942    0.0000 H   0  0  0  0  0  0  0  0  0  0  0  0
   13.3881   -4.5818    0.0000 H   0  0  0  0  0  0  0  0  0  0  0  0
   10.7482   -5.8979    0.0000 H   0  0  0  0  0  0  0  0  0  0  0  0
   12.4952   -1.4462    0.0000 H   0  0  0  0  0  0  0  0  0  0  0  0
   14.3433   -1.6471    0.0000 H   0  0  0  0  0  0  0  0  0  0  0  0
   17.4344   -3.2751    0.0000 H   0  0  0  0  0  0  0  0  0  0  0  0
   15.8062   -0.8154    0.0000 H   0  0  0  0  0  0  0  0  0  0  0  0
   19.5394   -0.1471    0.0000 H   0  0  0  0  0  0  0  0  0  0  0  0
   20.8755   -2.8269    0.0000 H   0  0  0  0  0  0  0  0  0  0  0  0
   20.8385    0.6029    0.0000 H   0  0  0  0  0  0  0  0  0  0  0  0
   23.8385   -1.9952    0.0000 H   0  0  0  0  0  0  0  0  0  0  0  0
   21.7524   -3.3760    0.0000 H   0  0  0  0  0  0  0  0  0  0  0  0
   24.1865    2.3038    0.0000 H   0  0  0  0  0  0  0  0  0  0  0  0
   15.0933   -5.5442    0.0000 H   0  0  0  0  0  0  0  0  0  0  0  0
   18.8433   -6.8433    0.0000 H   0  0  0  0  0  0  0  0  0  0  0  0
   19.3923   -4.7942    0.0000 H   0  0  0  0  0  0  0  0  0  0  0  0
   16.7942   -6.2942    0.0000 H   0  0  0  0  0  0  0  0  0  0  0  0
   -5.4341   -0.0817    0.0000 H   0  0  0  0  0  0  0  0  0  0  0  0
   -6.3481    3.8971    0.0000 H   0  0  0  0  0  0  0  0  0  0  0  0
   -7.6471    3.1471    0.0000 H   0  0  0  0  0  0  0  0  0  0  0  0
   -6.3111    0.4673    0.0000 H   0  0  0  0  0  0  0  0  0  0  0  0
   -7.4462   -0.2010    0.0000 H   0  0  0  0  0  0  0  0  0  0  0  0
   -8.9462    2.3971    0.0000 H   0  0  0  0  0  0  0  0  0  0  0  0
  -10.2452    1.6471    0.0000 H   0  0  0  0  0  0  0  0  0  0  0  0
   -8.7452   -0.9510    0.0000 H   0  0  0  0  0  0  0  0  0  0  0  0
  -12.0933    0.3481    0.0000 H   0  0  0  0  0  0  0  0  0  0  0  0
   -9.4952   -4.1519    0.0000 H   0  0  0  0  0  0  0  0  0  0  0  0
   -8.1962   -1.9019    0.0000 H   0  0  0  0  0  0  0  0  0  0  0  0
  -12.0933   -4.1519    0.0000 H   0  0  0  0  0  0  0  0  0  0  0  0
   -3.0000    5.5981    0.0000 H   0  0  0  0  0  0  0  0  0  0  0  0
   -5.5981    5.5981    0.0000 H   0  0  0  0  0  0  0  0  0  0  0  0
  1  2  1  0
  2  3  1  0
  3  4  1  0
  4  5  2  0
  4  6  1  0
  6  7  1  0
  7  8  1  0
  8  9  1  0
  9 10  1  0
 10 11  1  0
 11 12  1  0
 11 13  2  3
  6 14  1  0
 14 15  1  0
 15 16  2  0
 15 17  1  0
 17 18  1  0
 18 19  1  0
 19 20  1  0
 20 21  1  0
 21 22  1  0
 22 23  1  0
 22 24  2  3
 17 25  1  0
 25 26  1  0
 26 27  2  0
 26 28  1  0
 28 29  1  0
 29 30  1  0
 30 31  1  0
 31 32  1  0
 32 33  1  0
 33 34  1  0
 33 35  2  3
 28 36  1  0
 36 37  1  0
 37 38  2  0
 37 39  1  0
 39 40  1  0
 39 41  1  0
 41 42  1  0
 42 43  2  0
 42 44  1  0
 44 45  1  0
 45 46  1  0
 46 47  1  0
 47 48  1  0
 48 49  1  0
 49 50  1  0
 49 51  1  0
 51 52  1  0
 51 53  2  0
 44 54  1  0
 54 55  1  0
 55 56  1  0
 55 57  2  0
  2 58  1  0
 58 59  2  0
 58 60  1  0
 60 61  1  0
 61 62  1  0
 62 63  1  0
 63 64  1  0
 64 65  1  0
 65 66  1  0
 66 67  1  0
 66 68  2  3
 61 69  1  0
 69 70  1  0
 69 71  2  0
  1 72  1  0
  1 73  1  0
  1 74  1  0
  2 75  1  1
  3 76  1  0
  6 77  1  6
  7 78  1  0
  7 79  1  0
  8 80  1  0
  8 81  1  0
  9 82  1  0
  9 83  1  0
 10 84  1  0
 12 85  1  0
 12 86  1  0
 13 87  1  0
 14 88  1  0
 17 89  1  1
 18 90  1  0
 18 91  1  0
 19 92  1  0
 19 93  1  0
 20 94  1  0
 20 95  1  0
 21 96  1  0
 23 97  1  0
 23 98  1  0
 24 99  1  0
 25100  1  0
 28101  1  6
 29102  1  0
 29103  1  0
 30104  1  0
 30105  1  0
 31106  1  0
 31107  1  0
 32108  1  0
 34109  1  0
 34110  1  0
 35111  1  0
 36112  1  0
 39113  1  1
 40114  1  0
 40115  1  0
 40116  1  0
 41117  1  0
 44118  1  6
 45119  1  0
 45120  1  0
 48121  1  0
 48122  1  0
 49123  1  6
 50124  1  0
 50125  1  0
 52126  1  0
 54127  1  0
 56128  1  0
 56129  1  0
 56130  1  0
 60131  1  0
 61132  1  1
 62133  1  0
 62134  1  0
 63135  1  0
 63136  1  0
 64137  1  0
 64138  1  0
 65139  1  0
 67140  1  0
 67141  1  0
 68142  1  0
 70143  1  0
 70144  1  0
M  END
$$$$
