
     RDKit          3D

 28 28  0  0  0  0  0  0  0  0999 V2000
   -2.1370   -0.5179    0.4332 C   0  0  1  0  0  0  0  0  0  0  0  0
   -2.5420   -1.4892   -0.5871 N   0  0  0  0  0  0  0  0  0  0  0  0
   -0.7186    0.0126    0.1498 C   0  0  0  0  0  0  0  0  0  0  0  0
    0.3383   -1.0937    0.2685 C   0  0  0  0  0  0  0  0  0  0  0  0
    1.7135   -0.5408    0.0056 C   0  0  0  0  0  0  0  0  0  0  0  0
    2.4796   -0.0144    1.0592 C   0  0  0  0  0  0  0  0  0  0  0  0
    3.7433    0.5291    0.8077 C   0  0  0  0  0  0  0  0  0  0  0  0
    4.2458    0.5600   -0.4961 C   0  0  0  0  0  0  0  0  0  0  0  0
    3.4837    0.0510   -1.5514 C   0  0  0  0  0  0  0  0  0  0  0  0
    2.2196   -0.4935   -1.3043 C   0  0  0  0  0  0  0  0  0  0  0  0
   -3.1324    0.6227    0.5325 C   0  0  0  0  0  0  0  0  0  0  0  0
   -3.4991    1.4582   -0.6619 C   0  0  0  0  0  0  0  0  0  0  0  0
   -3.6526    0.8680    1.6107 O   0  0  0  0  0  0  0  0  0  0  0  0
   -2.1148   -1.0425    1.4155 H   0  0  0  0  0  0  0  0  0  0  0  0
   -2.5496   -1.0333   -1.5284 H   0  0  0  0  0  0  0  0  0  0  0  0
   -3.5161   -1.8104   -0.3809 H   0  0  0  0  0  0  0  0  0  0  0  0
   -0.6750    0.4515   -0.8712 H   0  0  0  0  0  0  0  0  0  0  0  0
   -0.4788    0.8164    0.8814 H   0  0  0  0  0  0  0  0  0  0  0  0
    0.1191   -1.9072   -0.4572 H   0  0  0  0  0  0  0  0  0  0  0  0
    0.3021   -1.5405    1.2865 H   0  0  0  0  0  0  0  0  0  0  0  0
    2.0978   -0.0237    2.0727 H   0  0  0  0  0  0  0  0  0  0  0  0
    4.3316    0.9297    1.6231 H   0  0  0  0  0  0  0  0  0  0  0  0
    5.2235    0.9822   -0.6893 H   0  0  0  0  0  0  0  0  0  0  0  0
    3.8711    0.0816   -2.5616 H   0  0  0  0  0  0  0  0  0  0  0  0
    1.6350   -0.8759   -2.1319 H   0  0  0  0  0  0  0  0  0  0  0  0
   -2.5864    1.8696   -1.1392 H   0  0  0  0  0  0  0  0  0  0  0  0
   -4.0553    0.8421   -1.3980 H   0  0  0  0  0  0  0  0  0  0  0  0
   -4.1464    2.3083   -0.3574 H   0  0  0  0  0  0  0  0  0  0  0  0
  1  2  1  0
  1  3  1  0
  3  4  1  0
  4  5  1  0
  5  6  2  0
  6  7  1  0
  7  8  2  0
  8  9  1  0
  9 10  2  0
  1 11  1  0
 11 12  1  0
 11 13  2  0
 10  5  1  0
  1 14  1  1
  2 15  1  0
  2 16  1  0
  3 17  1  0
  3 18  1  0
  4 19  1  0
  4 20  1  0
  6 21  1  0
  7 22  1  0
  8 23  1  0
  9 24  1  0
 10 25  1  0
 12 26  1  0
 12 27  1  0
 12 28  1  0
M  END
$$$$
