
     RDKit          3D

 69 72  0  0  0  0  0  0  0  0999 V2000
   -1.3475    1.7264   -0.4054 C   0  0  2  0  0  0  0  0  0  0  0  0
   -0.8463    2.8240   -1.3342 C   0  0  0  0  0  0  0  0  0  0  0  0
    0.6671    2.8773   -1.0648 C   0  0  0  0  0  0  0  0  0  0  0  0
    1.0051    1.6625   -0.1749 C   0  0  2  0  0  0  0  0  0  0  0  0
    2.2459    1.0786   -0.5787 O   0  0  0  0  0  0  0  0  0  0  0  0
    3.0127    0.2476    0.2445 C   0  0  0  0  0  0  0  0  0  0  0  0
    2.7071    0.0765    1.4561 O   0  0  0  0  0  0  0  0  0  0  0  0
    4.2454   -0.3932   -0.3075 C   0  0  0  0  0  0  0  0  0  0  0  0
    5.4473    0.5481   -0.1611 C   0  0  0  0  0  0  0  0  0  0  0  0
    6.7063    0.0293   -0.8790 C   0  0  0  0  0  0  0  0  0  0  0  0
    7.2442   -1.3153   -0.3568 C   0  0  0  0  0  0  0  0  0  0  0  0
    7.6758   -1.2559    1.1156 C   0  0  0  0  0  0  0  0  0  0  0  0
    8.3701   -2.5477    1.5375 C   0  0  0  0  0  0  0  0  0  0  0  0
   -0.1992    0.7110   -0.3503 C   0  0  2  0  0  0  0  0  0  0  0  0
   -0.0212   -0.1187   -1.6628 C   0  0  0  0  0  0  0  0  0  0  0  0
   -0.4635   -0.2320    0.8434 C   0  0  0  0  0  0  0  0  0  0  0  0
   -1.8357   -0.9352    0.7110 C   0  0  0  0  0  0  0  0  0  0  0  0
   -3.0213    0.0541    0.4643 C   0  0  1  0  0  0  0  0  0  0  0  0
   -2.7141    1.0681   -0.6892 C   0  0  1  0  0  0  0  0  0  0  0  0
   -3.8263    2.1280   -0.7575 C   0  0  0  0  0  0  0  0  0  0  0  0
   -5.1796    1.4792   -1.0328 C   0  0  0  0  0  0  0  0  0  0  0  0
   -5.4873    0.4069   -0.0138 C   0  0  0  0  0  0  0  0  0  0  0  0
   -6.7495    0.2996    0.4415 C   0  0  0  0  0  0  0  0  0  0  0  0
   -7.1693   -0.7929    1.3284 C   0  0  0  0  0  0  0  0  0  0  0  0
   -8.3548   -0.8304    1.7521 O   0  0  0  0  0  0  0  0  0  0  0  0
   -6.2225   -1.8946    1.6771 C   0  0  0  0  0  0  0  0  0  0  0  0
   -4.7758   -1.3951    1.6283 C   0  0  0  0  0  0  0  0  0  0  0  0
   -4.4217   -0.6564    0.2961 C   0  0  2  0  0  0  0  0  0  0  0  0
   -4.4107   -1.6797   -0.8688 C   0  0  0  0  0  0  0  0  0  0  0  0
   -1.4358    2.2108    0.5994 H   0  0  0  0  0  0  0  0  0  0  0  0
   -1.3270    3.7990   -1.1006 H   0  0  0  0  0  0  0  0  0  0  0  0
   -1.0477    2.5621   -2.3959 H   0  0  0  0  0  0  0  0  0  0  0  0
    1.2212    2.8320   -2.0282 H   0  0  0  0  0  0  0  0  0  0  0  0
    0.9390    3.8213   -0.5439 H   0  0  0  0  0  0  0  0  0  0  0  0
    1.0760    2.0151    0.8803 H   0  0  0  0  0  0  0  0  0  0  0  0
    4.0778   -0.6313   -1.3801 H   0  0  0  0  0  0  0  0  0  0  0  0
    4.4316   -1.3428    0.2377 H   0  0  0  0  0  0  0  0  0  0  0  0
    5.1880    1.5331   -0.6089 H   0  0  0  0  0  0  0  0  0  0  0  0
    5.6619    0.7275    0.9139 H   0  0  0  0  0  0  0  0  0  0  0  0
    7.5065    0.7958   -0.7873 H   0  0  0  0  0  0  0  0  0  0  0  0
    6.4832   -0.0762   -1.9632 H   0  0  0  0  0  0  0  0  0  0  0  0
    6.4874   -2.1154   -0.4998 H   0  0  0  0  0  0  0  0  0  0  0  0
    8.1255   -1.5876   -0.9783 H   0  0  0  0  0  0  0  0  0  0  0  0
    8.3743   -0.4051    1.2707 H   0  0  0  0  0  0  0  0  0  0  0  0
    6.7874   -1.1105    1.7659 H   0  0  0  0  0  0  0  0  0  0  0  0
    9.2882   -2.7084    0.9331 H   0  0  0  0  0  0  0  0  0  0  0  0
    8.6577   -2.4828    2.6080 H   0  0  0  0  0  0  0  0  0  0  0  0
    7.6868   -3.4135    1.4048 H   0  0  0  0  0  0  0  0  0  0  0  0
    0.8211   -0.8338   -1.5500 H   0  0  0  0  0  0  0  0  0  0  0  0
   -0.9123   -0.7196   -1.9229 H   0  0  0  0  0  0  0  0  0  0  0  0
    0.2059    0.5307   -2.5333 H   0  0  0  0  0  0  0  0  0  0  0  0
   -0.4446    0.3410    1.7969 H   0  0  0  0  0  0  0  0  0  0  0  0
    0.3329   -1.0041    0.9049 H   0  0  0  0  0  0  0  0  0  0  0  0
   -1.7776   -1.6887   -0.0982 H   0  0  0  0  0  0  0  0  0  0  0  0
   -2.0035   -1.4928    1.6551 H   0  0  0  0  0  0  0  0  0  0  0  0
   -3.0906    0.6643    1.3952 H   0  0  0  0  0  0  0  0  0  0  0  0
   -2.6794    0.5584   -1.6717 H   0  0  0  0  0  0  0  0  0  0  0  0
   -3.6140    2.8481   -1.5769 H   0  0  0  0  0  0  0  0  0  0  0  0
   -3.8767    2.6988    0.1966 H   0  0  0  0  0  0  0  0  0  0  0  0
   -5.9526    2.2793   -1.0275 H   0  0  0  0  0  0  0  0  0  0  0  0
   -5.1768    1.0243   -2.0468 H   0  0  0  0  0  0  0  0  0  0  0  0
   -7.4964    1.0304    0.1534 H   0  0  0  0  0  0  0  0  0  0  0  0
   -6.4435   -2.2675    2.7008 H   0  0  0  0  0  0  0  0  0  0  0  0
   -6.3646   -2.7380    0.9692 H   0  0  0  0  0  0  0  0  0  0  0  0
   -4.6225   -0.7089    2.4910 H   0  0  0  0  0  0  0  0  0  0  0  0
   -4.1122   -2.2722    1.7819 H   0  0  0  0  0  0  0  0  0  0  0  0
   -5.4403   -2.0297   -1.0947 H   0  0  0  0  0  0  0  0  0  0  0  0
   -4.0086   -1.2380   -1.8018 H   0  0  0  0  0  0  0  0  0  0  0  0
   -3.8063   -2.5754   -0.6162 H   0  0  0  0  0  0  0  0  0  0  0  0
  1  2  1  0
  2  3  1  0
  3  4  1  0
  4  5  1  0
  5  6  1  0
  6  7  2  0
  6  8  1  0
  8  9  1  0
  9 10  1  0
 10 11  1  0
 11 12  1  0
 12 13  1  0
  4 14  1  0
 14 15  1  6
 14 16  1  0
 16 17  1  0
 17 18  1  0
 18 19  1  0
 19 20  1  0
 20 21  1  0
 21 22  1  0
 22 23  2  0
 23 24  1  0
 24 25  2  0
 24 26  1  0
 26 27  1  0
 27 28  1  0
 28 29  1  6
 14  1  1  0
 28 18  1  0
 19  1  1  0
 28 22  1  0
  1 30  1  1
  2 31  1  0
  2 32  1  0
  3 33  1  0
  3 34  1  0
  4 35  1  1
  8 36  1  0
  8 37  1  0
  9 38  1  0
  9 39  1  0
 10 40  1  0
 10 41  1  0
 11 42  1  0
 11 43  1  0
 12 44  1  0
 12 45  1  0
 13 46  1  0
 13 47  1  0
 13 48  1  0
 15 49  1  0
 15 50  1  0
 15 51  1  0
 16 52  1  0
 16 53  1  0
 17 54  1  0
 17 55  1  0
 18 56  1  1
 19 57  1  6
 20 58  1  0
 20 59  1  0
 21 60  1  0
 21 61  1  0
 23 62  1  0
 26 63  1  0
 26 64  1  0
 27 65  1  0
 27 66  1  0
 29 67  1  0
 29 68  1  0
 29 69  1  0
M  END
$$$$
