
     RDKit          3D

 35 36  0  0  0  0  0  0  0  0999 V2000
   -7.9162    0.4815   -0.4866 Cl  0  0  0  0  0  0  0  0  0  0  0  0
   -6.2103    0.5561   -0.0849 C   0  0  0  0  0  0  0  0  0  0  0  0
   -5.7443    1.5190    0.8144 C   0  0  0  0  0  0  0  0  0  0  0  0
   -4.3852    1.5787    1.1369 C   0  0  0  0  0  0  0  0  0  0  0  0
   -3.4727    0.6786    0.5557 C   0  0  0  0  0  0  0  0  0  0  0  0
   -3.9552   -0.2949   -0.3396 C   0  0  0  0  0  0  0  0  0  0  0  0
   -5.3156   -0.3515   -0.6585 C   0  0  0  0  0  0  0  0  0  0  0  0
   -2.0345    0.7493    0.9108 C   0  0  0  0  0  0  0  0  0  0  0  0
   -1.6941    1.2704    2.0085 O   0  0  0  0  0  0  0  0  0  0  0  0
   -1.0228    0.2521    0.0207 N   0  0  0  0  0  0  0  0  0  0  0  0
    0.3790    0.1768    0.4336 C   0  0  0  0  0  0  0  0  0  0  0  0
    1.2507   -0.4079   -0.6861 C   0  0  0  0  0  0  0  0  0  0  0  0
    2.6311   -0.6558   -0.2163 N   0  0  0  0  0  0  0  0  0  0  0  0
    3.3826    0.6089   -0.0403 C   0  0  0  0  0  0  0  0  0  0  0  0
    4.8976    0.3516    0.0778 C   0  0  0  0  0  0  0  0  0  0  0  0
    5.1473   -0.9943    0.4243 O   0  0  0  0  0  0  0  0  0  0  0  0
    4.7629   -1.8421   -0.6439 C   0  0  0  0  0  0  0  0  0  0  0  0
    3.3402   -1.5379   -1.1614 C   0  0  0  0  0  0  0  0  0  0  0  0
   -6.4339    2.2220    1.2643 H   0  0  0  0  0  0  0  0  0  0  0  0
   -4.0461    2.3361    1.8328 H   0  0  0  0  0  0  0  0  0  0  0  0
   -3.2928   -1.0299   -0.7765 H   0  0  0  0  0  0  0  0  0  0  0  0
   -5.6740   -1.1064   -1.3469 H   0  0  0  0  0  0  0  0  0  0  0  0
   -1.2838   -0.0132   -0.9555 H   0  0  0  0  0  0  0  0  0  0  0  0
    0.4599   -0.4702    1.3340 H   0  0  0  0  0  0  0  0  0  0  0  0
    0.7302    1.1981    0.6919 H   0  0  0  0  0  0  0  0  0  0  0  0
    1.2418    0.2702   -1.5695 H   0  0  0  0  0  0  0  0  0  0  0  0
    0.7826   -1.3689   -0.9982 H   0  0  0  0  0  0  0  0  0  0  0  0
    3.0424    1.1019    0.8954 H   0  0  0  0  0  0  0  0  0  0  0  0
    3.2031    1.3100   -0.8867 H   0  0  0  0  0  0  0  0  0  0  0  0
    5.3240    1.0078    0.8661 H   0  0  0  0  0  0  0  0  0  0  0  0
    5.4140    0.6168   -0.8740 H   0  0  0  0  0  0  0  0  0  0  0  0
    4.7955   -2.8894   -0.2749 H   0  0  0  0  0  0  0  0  0  0  0  0
    5.5001   -1.7694   -1.4745 H   0  0  0  0  0  0  0  0  0  0  0  0
    2.7909   -2.4986   -1.2786 H   0  0  0  0  0  0  0  0  0  0  0  0
    3.4054   -1.0553   -2.1639 H   0  0  0  0  0  0  0  0  0  0  0  0
  1  2  1  0
  2  3  2  0
  3  4  1  0
  4  5  2  0
  5  6  1  0
  6  7  2  0
  5  8  1  0
  8  9  2  0
  8 10  1  0
 10 11  1  0
 11 12  1  0
 12 13  1  0
 13 14  1  0
 14 15  1  0
 15 16  1  0
 16 17  1  0
 17 18  1  0
  7  2  1  0
 18 13  1  0
  3 19  1  0
  4 20  1  0
  6 21  1  0
  7 22  1  0
 10 23  1  0
 11 24  1  0
 11 25  1  0
 12 26  1  0
 12 27  1  0
 14 28  1  0
 14 29  1  0
 15 30  1  0
 15 31  1  0
 17 32  1  0
 17 33  1  0
 18 34  1  0
 18 35  1  0
M  END
$$$$
