
     RDKit          3D

 29 30  0  0  0  0  0  0  0  0999 V2000
   -1.6904   -0.1259    0.5659 C   0  0  2  0  0  0  0  0  0  0  0  0
   -1.0274    0.2869    1.7358 O   0  0  0  0  0  0  0  0  0  0  0  0
   -0.9030    0.3018   -0.6915 C   0  0  0  0  0  0  0  0  0  0  0  0
    0.4490   -0.2526   -0.6603 N   0  0  0  0  0  0  0  0  0  0  0  0
    0.8376   -1.5054   -1.0112 C   0  0  0  0  0  0  0  0  0  0  0  0
    2.1625   -1.7386   -0.7972 N   0  0  0  0  0  0  0  0  0  0  0  0
    2.5908   -0.5688   -0.2850 C   0  0  0  0  0  0  0  0  0  0  0  0
    3.8607   -0.2043    0.1477 C   0  0  0  0  0  0  0  0  0  0  0  0
    4.9667   -1.1044    0.0784 N   0  0  0  0  0  0  0  0  0  0  0  0
    4.0200    1.0564    0.6515 N   0  0  0  0  0  0  0  0  0  0  0  0
    2.9673    1.9331    0.7310 C   0  0  0  0  0  0  0  0  0  0  0  0
    1.7222    1.5632    0.3038 N   0  0  0  0  0  0  0  0  0  0  0  0
    1.5698    0.3138   -0.1983 C   0  0  0  0  0  0  0  0  0  0  0  0
   -3.1514    0.3861    0.5680 C   0  0  1  0  0  0  0  0  0  0  0  0
   -3.1980    1.7802    0.3896 O   0  0  0  0  0  0  0  0  0  0  0  0
   -3.9621   -0.2885   -0.5021 C   0  0  0  0  0  0  0  0  0  0  0  0
   -4.4897   -1.5549   -0.2697 O   0  0  0  0  0  0  0  0  0  0  0  0
   -4.1360    0.2673   -1.6204 O   0  0  0  0  0  0  0  0  0  0  0  0
   -1.7200   -1.2381    0.5843 H   0  0  0  0  0  0  0  0  0  0  0  0
   -0.9120    1.2716    1.6879 H   0  0  0  0  0  0  0  0  0  0  0  0
   -1.4185   -0.0643   -1.6050 H   0  0  0  0  0  0  0  0  0  0  0  0
   -0.8514    1.4104   -0.7582 H   0  0  0  0  0  0  0  0  0  0  0  0
    0.1624   -2.2509   -1.4108 H   0  0  0  0  0  0  0  0  0  0  0  0
    5.9091   -0.8038    0.4124 H   0  0  0  0  0  0  0  0  0  0  0  0
    4.8518   -2.0691   -0.3044 H   0  0  0  0  0  0  0  0  0  0  0  0
    3.1232    2.9236    1.1356 H   0  0  0  0  0  0  0  0  0  0  0  0
   -3.6169    0.1155    1.5454 H   0  0  0  0  0  0  0  0  0  0  0  0
   -3.0909    2.1935    1.2858 H   0  0  0  0  0  0  0  0  0  0  0  0
   -5.0255   -2.0336   -0.9839 H   0  0  0  0  0  0  0  0  0  0  0  0
  1  2  1  0
  1  3  1  0
  3  4  1  0
  4  5  1  0
  5  6  2  0
  6  7  1  0
  7  8  2  0
  8  9  1  0
  8 10  1  0
 10 11  2  0
 11 12  1  0
 12 13  2  0
  1 14  1  0
 14 15  1  0
 14 16  1  0
 16 17  1  0
 16 18  2  0
 13  4  1  0
 13  7  1  0
  1 19  1  1
  2 20  1  0
  3 21  1  0
  3 22  1  0
  5 23  1  0
  9 24  1  0
  9 25  1  0
 11 26  1  0
 14 27  1  1
 15 28  1  0
 17 29  1  0
M  END
$$$$
