
     RDKit          3D

 25 26  0  0  0  0  0  0  0  0999 V2000
   -0.6111    1.1403    2.0279 C   0  0  0  0  0  0  0  0  0  0  0  0
   -1.1468    0.3681    0.8504 C   0  0  0  0  0  0  0  0  0  0  0  0
   -0.2916   -0.1184   -0.1673 C   0  0  0  0  0  0  0  0  0  0  0  0
   -0.8574   -0.7958   -1.2561 C   0  0  0  0  0  0  0  0  0  0  0  0
   -2.2349   -1.0127   -1.3159 C   0  0  0  0  0  0  0  0  0  0  0  0
   -2.7993   -1.7201   -2.4394 C   0  0  0  0  0  0  0  0  0  0  0  0
   -3.2518   -2.2876   -3.3407 N   0  0  0  0  0  0  0  0  0  0  0  0
   -3.0455   -0.5438   -0.2734 C   0  0  0  0  0  0  0  0  0  0  0  0
   -4.2922   -0.7359   -0.2994 O   0  0  0  0  0  0  0  0  0  0  0  0
   -2.4891    0.1250    0.7745 N   0  0  0  0  0  0  0  0  0  0  0  0
    1.1768    0.0677   -0.1260 C   0  0  0  0  0  0  0  0  0  0  0  0
    1.9351   -0.4574    0.9311 C   0  0  0  0  0  0  0  0  0  0  0  0
    3.3205   -0.2791    0.9391 C   0  0  0  0  0  0  0  0  0  0  0  0
    3.9281    0.3908   -0.0760 N   0  0  0  0  0  0  0  0  0  0  0  0
    3.2194    0.9003   -1.1182 C   0  0  0  0  0  0  0  0  0  0  0  0
    1.8319    0.7443   -1.1654 C   0  0  0  0  0  0  0  0  0  0  0  0
   -0.2347    0.4354    2.7975 H   0  0  0  0  0  0  0  0  0  0  0  0
   -1.4082    1.7656    2.4821 H   0  0  0  0  0  0  0  0  0  0  0  0
    0.2070    1.8222    1.7142 H   0  0  0  0  0  0  0  0  0  0  0  0
   -0.2201   -1.1684   -2.0507 H   0  0  0  0  0  0  0  0  0  0  0  0
   -3.1176    0.4664    1.5375 H   0  0  0  0  0  0  0  0  0  0  0  0
    1.4613   -1.0091    1.7333 H   0  0  0  0  0  0  0  0  0  0  0  0
    3.9139   -0.6783    1.7508 H   0  0  0  0  0  0  0  0  0  0  0  0
    3.7331    1.4264   -1.9116 H   0  0  0  0  0  0  0  0  0  0  0  0
    1.2733    1.1538   -1.9981 H   0  0  0  0  0  0  0  0  0  0  0  0
  1  2  1  0
  2  3  2  0
  3  4  1  0
  4  5  2  0
  5  6  1  0
  6  7  3  0
  5  8  1  0
  8  9  2  0
  8 10  1  0
  3 11  1  0
 11 12  2  0
 12 13  1  0
 13 14  2  0
 14 15  1  0
 15 16  2  0
 10  2  1  0
 16 11  1  0
  1 17  1  0
  1 18  1  0
  1 19  1  0
  4 20  1  0
 10 21  1  0
 12 22  1  0
 13 23  1  0
 15 24  1  0
 16 25  1  0
M  END
$$$$
