
     RDKit          3D

 46 46  0  0  0  0  0  0  0  0999 V2000
   -0.4147   -0.8714   -0.6891 C   0  0  1  0  0  0  0  0  0  0  0  0
   -1.5203   -1.4666   -1.4440 N   0  0  0  0  0  0  0  0  0  0  0  0
   -0.6465   -1.0636    0.8370 C   0  0  0  0  0  0  0  0  0  0  0  0
   -1.8943   -0.3731    1.4568 C   0  0  0  0  0  0  0  0  0  0  0  0
   -2.0057    1.1413    1.1244 C   0  0  0  0  0  0  0  0  0  0  0  0
   -3.0899    1.4229    0.0776 C   0  0  0  0  0  0  0  0  0  0  0  0
   -4.4803    0.9515    0.5519 C   0  0  0  0  0  0  0  0  0  0  0  0
   -4.4318   -0.2653    1.4992 C   0  0  0  0  0  0  0  0  0  0  0  0
   -3.2146   -1.1521    1.2191 C   0  0  0  0  0  0  0  0  0  0  0  0
    0.9429   -1.4875   -1.1707 C   0  0  1  0  0  0  0  0  0  0  0  0
    1.1212   -1.2690   -2.5494 O   0  0  0  0  0  0  0  0  0  0  0  0
    2.2266   -1.0635   -0.3933 C   0  0  1  0  0  0  0  0  0  0  0  0
    3.3356   -1.6896   -0.9883 O   0  0  0  0  0  0  0  0  0  0  0  0
    2.4656    0.4661   -0.3777 C   0  0  0  0  0  0  0  0  0  0  0  0
    3.4506    0.9266    0.7253 C   0  0  0  0  0  0  0  0  0  0  0  0
    4.8814    0.4228    0.4830 C   0  0  0  0  0  0  0  0  0  0  0  0
    3.4506    2.4588    0.8198 C   0  0  0  0  0  0  0  0  0  0  0  0
   -0.4063    0.2119   -0.9197 H   0  0  0  0  0  0  0  0  0  0  0  0
   -1.4727   -2.5098   -1.3786 H   0  0  0  0  0  0  0  0  0  0  0  0
   -1.4354   -1.2035   -2.4526 H   0  0  0  0  0  0  0  0  0  0  0  0
   -0.6735   -2.1503    1.0717 H   0  0  0  0  0  0  0  0  0  0  0  0
    0.2222   -0.6411    1.3813 H   0  0  0  0  0  0  0  0  0  0  0  0
   -1.7277   -0.4205    2.5580 H   0  0  0  0  0  0  0  0  0  0  0  0
   -1.0324    1.5597    0.7917 H   0  0  0  0  0  0  0  0  0  0  0  0
   -2.2743    1.6980    2.0501 H   0  0  0  0  0  0  0  0  0  0  0  0
   -3.1229    2.5127   -0.1381 H   0  0  0  0  0  0  0  0  0  0  0  0
   -2.8281    0.9062   -0.8701 H   0  0  0  0  0  0  0  0  0  0  0  0
   -4.9935    1.7876    1.0752 H   0  0  0  0  0  0  0  0  0  0  0  0
   -5.0917    0.6979   -0.3415 H   0  0  0  0  0  0  0  0  0  0  0  0
   -4.3876    0.0864    2.5537 H   0  0  0  0  0  0  0  0  0  0  0  0
   -5.3625   -0.8621    1.3847 H   0  0  0  0  0  0  0  0  0  0  0  0
   -3.2456   -2.0396    1.8881 H   0  0  0  0  0  0  0  0  0  0  0  0
   -3.3005   -1.5248    0.1823 H   0  0  0  0  0  0  0  0  0  0  0  0
    0.8582   -2.5880   -1.0313 H   0  0  0  0  0  0  0  0  0  0  0  0
    1.1112   -0.2885   -2.7015 H   0  0  0  0  0  0  0  0  0  0  0  0
    2.1430   -1.4207    0.6580 H   0  0  0  0  0  0  0  0  0  0  0  0
    3.3185   -2.6421   -0.7076 H   0  0  0  0  0  0  0  0  0  0  0  0
    2.8297    0.8017   -1.3737 H   0  0  0  0  0  0  0  0  0  0  0  0
    1.5067    0.9864   -0.1886 H   0  0  0  0  0  0  0  0  0  0  0  0
    3.1025    0.5328    1.7061 H   0  0  0  0  0  0  0  0  0  0  0  0
    5.2192    0.6754   -0.5449 H   0  0  0  0  0  0  0  0  0  0  0  0
    5.5826    0.8838    1.2112 H   0  0  0  0  0  0  0  0  0  0  0  0
    4.9386   -0.6747    0.6316 H   0  0  0  0  0  0  0  0  0  0  0  0
    2.4290    2.8316    1.0474 H   0  0  0  0  0  0  0  0  0  0  0  0
    3.7929    2.9096   -0.1367 H   0  0  0  0  0  0  0  0  0  0  0  0
    4.1240    2.7955    1.6369 H   0  0  0  0  0  0  0  0  0  0  0  0
  1  2  1  0
  1  3  1  0
  3  4  1  0
  4  5  1  0
  5  6  1  0
  6  7  1  0
  7  8  1  0
  8  9  1  0
  1 10  1  0
 10 11  1  0
 10 12  1  0
 12 13  1  0
 12 14  1  0
 14 15  1  0
 15 16  1  0
 15 17  1  0
  9  4  1  0
  1 18  1  1
  2 19  1  0
  2 20  1  0
  3 21  1  0
  3 22  1  0
  4 23  1  0
  5 24  1  0
  5 25  1  0
  6 26  1  0
  6 27  1  0
  7 28  1  0
  7 29  1  0
  8 30  1  0
  8 31  1  0
  9 32  1  0
  9 33  1  0
 10 34  1  6
 11 35  1  0
 12 36  1  1
 13 37  1  0
 14 38  1  0
 14 39  1  0
 15 40  1  0
 16 41  1  0
 16 42  1  0
 16 43  1  0
 17 44  1  0
 17 45  1  0
 17 46  1  0
M  END
$$$$
