
     RDKit          3D

 26 25  0  0  0  0  0  0  0  0999 V2000
    2.6130    1.4174   -0.8446 O   0  0  0  0  0  0  0  0  0  0  0  0
    2.8141    0.3138   -0.0054 C   0  0  0  0  0  0  0  0  0  0  0  0
    1.7709   -0.7839   -0.3034 C   0  0  1  0  0  0  0  0  0  0  0  0
    2.2825   -2.0428    0.0606 O   0  0  0  0  0  0  0  0  0  0  0  0
    0.3888   -0.5653    0.3729 C   0  0  1  0  0  0  0  0  0  0  0  0
    0.5445   -0.4973    1.7703 O   0  0  0  0  0  0  0  0  0  0  0  0
   -0.3539    0.6952   -0.1484 C   0  0  2  0  0  0  0  0  0  0  0  0
    0.2216    1.8435    0.4234 O   0  0  0  0  0  0  0  0  0  0  0  0
   -1.8764    0.7005    0.1553 C   0  0  2  0  0  0  0  0  0  0  0  0
   -2.1001    0.6446    1.5413 O   0  0  0  0  0  0  0  0  0  0  0  0
   -2.6594   -0.4113   -0.5723 C   0  0  0  0  0  0  0  0  0  0  0  0
   -2.6297   -1.6069    0.1585 O   0  0  0  0  0  0  0  0  0  0  0  0
    3.2920    2.0917   -0.5816 H   0  0  0  0  0  0  0  0  0  0  0  0
    2.7623    0.6250    1.0617 H   0  0  0  0  0  0  0  0  0  0  0  0
    3.8327   -0.0937   -0.1950 H   0  0  0  0  0  0  0  0  0  0  0  0
    1.6143   -0.8142   -1.4044 H   0  0  0  0  0  0  0  0  0  0  0  0
    2.4930   -2.0139    1.0307 H   0  0  0  0  0  0  0  0  0  0  0  0
   -0.2031   -1.4659    0.0964 H   0  0  0  0  0  0  0  0  0  0  0  0
   -0.1730   -1.0498    2.1770 H   0  0  0  0  0  0  0  0  0  0  0  0
   -0.2303    0.7348   -1.2569 H   0  0  0  0  0  0  0  0  0  0  0  0
   -0.0022    2.6081   -0.1695 H   0  0  0  0  0  0  0  0  0  0  0  0
   -2.2671    1.6718   -0.2311 H   0  0  0  0  0  0  0  0  0  0  0  0
   -3.0394    0.9290    1.6929 H   0  0  0  0  0  0  0  0  0  0  0  0
   -3.7182   -0.0856   -0.6831 H   0  0  0  0  0  0  0  0  0  0  0  0
   -2.2436   -0.5733   -1.5921 H   0  0  0  0  0  0  0  0  0  0  0  0
   -3.1334   -2.2717   -0.3793 H   0  0  0  0  0  0  0  0  0  0  0  0
  1  2  1  0
  2  3  1  0
  3  4  1  0
  3  5  1  0
  5  6  1  0
  5  7  1  0
  7  8  1  0
  7  9  1  0
  9 10  1  0
  9 11  1  0
 11 12  1  0
  1 13  1  0
  2 14  1  0
  2 15  1  0
  3 16  1  6
  4 17  1  0
  5 18  1  1
  6 19  1  0
  7 20  1  6
  8 21  1  0
  9 22  1  6
 10 23  1  0
 11 24  1  0
 11 25  1  0
 12 26  1  0
M  END
$$$$
