
     RDKit          3D

 73 75  0  0  0  0  0  0  0  0999 V2000
   -6.9300    0.3196   -4.0373 C   0  0  0  0  0  0  0  0  0  0  0  0
   -6.2892    0.2110   -2.6446 C   0  0  0  0  0  0  0  0  0  0  0  0
   -6.9761    1.1867   -1.6743 C   0  0  0  0  0  0  0  0  0  0  0  0
   -4.7381    0.3567   -2.7125 C   0  0  1  0  0  0  0  0  0  0  0  0
   -4.2421    1.7306   -3.2028 C   0  0  0  0  0  0  0  0  0  0  0  0
   -4.0674   -0.0661   -1.4192 C   0  0  0  0  0  0  0  0  0  0  0  0
   -3.9573    0.7363   -0.3437 C   0  0  0  0  0  0  0  0  0  0  0  0
   -3.2893    0.3290    0.9548 C   0  0  1  0  0  0  0  0  0  0  0  0
   -3.6524   -1.1065    1.3921 C   0  0  0  0  0  0  0  0  0  0  0  0
   -1.7867    0.7715    1.0177 C   0  0  1  0  0  0  0  0  0  0  0  0
   -1.1851    0.7357    2.4476 C   0  0  0  0  0  0  0  0  0  0  0  0
    0.3208    0.4798    2.2881 C   0  0  0  0  0  0  0  0  0  0  0  0
    0.5726    0.6788    0.7976 C   0  0  1  0  0  0  0  0  0  0  0  0
    1.8356    0.1625    0.1431 C   0  0  0  0  0  0  0  0  0  0  0  0
    1.9240    0.4714   -1.3446 C   0  0  0  0  0  0  0  0  0  0  0  0
    0.6096    0.1598   -2.0949 C   0  0  0  0  0  0  0  0  0  0  0  0
   -0.6629    0.6368   -1.3558 C   0  0  0  0  0  0  0  0  0  0  0  0
   -0.6909    0.1326    0.1112 C   0  0  2  0  0  0  0  0  0  0  0  0
   -0.7332   -1.4235    0.1489 C   0  0  0  0  0  0  0  0  0  0  0  0
    2.8797   -0.2816    0.8726 C   0  0  0  0  0  0  0  0  0  0  0  0
    4.1624   -0.7433    0.2976 C   0  0  0  0  0  0  0  0  0  0  0  0
    5.3320   -0.7396    0.9710 C   0  0  0  0  0  0  0  0  0  0  0  0
    6.4929   -1.5082    0.3718 C   0  0  0  0  0  0  0  0  0  0  0  0
    7.7035   -1.6238    1.3154 C   0  0  1  0  0  0  0  0  0  0  0  0
    8.4654   -0.4447    1.2537 O   0  0  0  0  0  0  0  0  0  0  0  0
    7.2340   -1.8905    2.7561 C   0  0  0  0  0  0  0  0  0  0  0  0
    6.4447   -0.6983    3.3185 C   0  0  0  0  0  0  0  0  0  0  0  0
    5.5223   -0.0737    2.2960 C   0  0  0  0  0  0  0  0  0  0  0  0
    5.0063    1.1347    2.5543 C   0  0  0  0  0  0  0  0  0  0  0  0
   -8.0028    0.0355   -3.9848 H   0  0  0  0  0  0  0  0  0  0  0  0
   -6.4303   -0.3691   -4.7513 H   0  0  0  0  0  0  0  0  0  0  0  0
   -6.8645    1.3571   -4.4272 H   0  0  0  0  0  0  0  0  0  0  0  0
   -6.5070   -0.8177   -2.2782 H   0  0  0  0  0  0  0  0  0  0  0  0
   -6.7882    2.2420   -1.9594 H   0  0  0  0  0  0  0  0  0  0  0  0
   -6.6358    1.0145   -0.6339 H   0  0  0  0  0  0  0  0  0  0  0  0
   -8.0743    1.0190   -1.6853 H   0  0  0  0  0  0  0  0  0  0  0  0
   -4.3888   -0.3773   -3.4731 H   0  0  0  0  0  0  0  0  0  0  0  0
   -4.5936    1.9248   -4.2369 H   0  0  0  0  0  0  0  0  0  0  0  0
   -3.1316    1.7466   -3.2221 H   0  0  0  0  0  0  0  0  0  0  0  0
   -4.5894    2.5554   -2.5493 H   0  0  0  0  0  0  0  0  0  0  0  0
   -3.6297   -1.0572   -1.3981 H   0  0  0  0  0  0  0  0  0  0  0  0
   -4.3729    1.7381   -0.3835 H   0  0  0  0  0  0  0  0  0  0  0  0
   -3.7860    0.9662    1.7215 H   0  0  0  0  0  0  0  0  0  0  0  0
   -3.3227   -1.8789    0.6769 H   0  0  0  0  0  0  0  0  0  0  0  0
   -3.2408   -1.3507    2.3898 H   0  0  0  0  0  0  0  0  0  0  0  0
   -4.7575   -1.1930    1.4701 H   0  0  0  0  0  0  0  0  0  0  0  0
   -1.8102    1.8544    0.7451 H   0  0  0  0  0  0  0  0  0  0  0  0
   -1.6213   -0.0610    3.0806 H   0  0  0  0  0  0  0  0  0  0  0  0
   -1.3579    1.7087    2.9583 H   0  0  0  0  0  0  0  0  0  0  0  0
    0.9195    1.1916    2.8975 H   0  0  0  0  0  0  0  0  0  0  0  0
    0.5595   -0.5623    2.5945 H   0  0  0  0  0  0  0  0  0  0  0  0
    0.6109    1.7867    0.6542 H   0  0  0  0  0  0  0  0  0  0  0  0
    2.1488    1.5541   -1.4560 H   0  0  0  0  0  0  0  0  0  0  0  0
    2.7363   -0.0810   -1.8534 H   0  0  0  0  0  0  0  0  0  0  0  0
    0.6446    0.6441   -3.0946 H   0  0  0  0  0  0  0  0  0  0  0  0
    0.5450   -0.9345   -2.2763 H   0  0  0  0  0  0  0  0  0  0  0  0
   -0.7026    1.7480   -1.3854 H   0  0  0  0  0  0  0  0  0  0  0  0
   -1.5394    0.2606   -1.9136 H   0  0  0  0  0  0  0  0  0  0  0  0
    0.2361   -1.8740   -0.1460 H   0  0  0  0  0  0  0  0  0  0  0  0
   -1.4862   -1.8097   -0.5661 H   0  0  0  0  0  0  0  0  0  0  0  0
   -0.9612   -1.8046    1.1654 H   0  0  0  0  0  0  0  0  0  0  0  0
    2.7881   -0.3287    1.9485 H   0  0  0  0  0  0  0  0  0  0  0  0
    4.1385   -1.2291   -0.6691 H   0  0  0  0  0  0  0  0  0  0  0  0
    6.1467   -2.5372    0.1267 H   0  0  0  0  0  0  0  0  0  0  0  0
    6.8066   -1.0255   -0.5795 H   0  0  0  0  0  0  0  0  0  0  0  0
    8.3263   -2.4829    0.9729 H   0  0  0  0  0  0  0  0  0  0  0  0
    9.3398   -0.6473    1.6781 H   0  0  0  0  0  0  0  0  0  0  0  0
    6.5928   -2.7996    2.7715 H   0  0  0  0  0  0  0  0  0  0  0  0
    8.1129   -2.0907    3.4066 H   0  0  0  0  0  0  0  0  0  0  0  0
    7.1716    0.0672    3.6708 H   0  0  0  0  0  0  0  0  0  0  0  0
    5.8501   -1.0326    4.1957 H   0  0  0  0  0  0  0  0  0  0  0  0
    5.1869    1.6222    3.5044 H   0  0  0  0  0  0  0  0  0  0  0  0
    4.4288    1.6743    1.8152 H   0  0  0  0  0  0  0  0  0  0  0  0
  1  2  1  0
  2  3  1  0
  2  4  1  0
  4  5  1  0
  4  6  1  0
  6  7  2  0
  7  8  1  0
  8  9  1  0
  8 10  1  0
 10 11  1  0
 11 12  1  0
 12 13  1  0
 13 14  1  0
 14 15  1  0
 15 16  1  0
 16 17  1  0
 17 18  1  0
 18 19  1  6
 14 20  2  0
 20 21  1  0
 21 22  2  0
 22 23  1  0
 23 24  1  0
 24 25  1  0
 24 26  1  0
 26 27  1  0
 27 28  1  0
 28 29  2  3
 18 10  1  0
 28 22  1  0
 18 13  1  0
  1 30  1  0
  1 31  1  0
  1 32  1  0
  2 33  1  0
  3 34  1  0
  3 35  1  0
  3 36  1  0
  4 37  1  6
  5 38  1  0
  5 39  1  0
  5 40  1  0
  6 41  1  0
  7 42  1  0
  8 43  1  1
  9 44  1  0
  9 45  1  0
  9 46  1  0
 10 47  1  6
 11 48  1  0
 11 49  1  0
 12 50  1  0
 12 51  1  0
 13 52  1  1
 15 53  1  0
 15 54  1  0
 16 55  1  0
 16 56  1  0
 17 57  1  0
 17 58  1  0
 19 59  1  0
 19 60  1  0
 19 61  1  0
 20 62  1  0
 21 63  1  0
 23 64  1  0
 23 65  1  0
 24 66  1  6
 25 67  1  0
 26 68  1  0
 26 69  1  0
 27 70  1  0
 27 71  1  0
 29 72  1  0
 29 73  1  0
M  END
$$$$
