
     RDKit          3D

 47 49  0  0  0  0  0  0  0  0999 V2000
    5.4715   -2.5987    0.8285 C   0  0  0  0  0  0  0  0  0  0  0  0
    4.1812   -2.4057    0.2581 O   0  0  0  0  0  0  0  0  0  0  0  0
    3.6183   -1.1517   -0.0226 C   0  0  0  0  0  0  0  0  0  0  0  0
    2.3381   -1.1094   -0.5826 C   0  0  0  0  0  0  0  0  0  0  0  0
    1.7219    0.1160   -0.8878 C   0  0  0  0  0  0  0  0  0  0  0  0
    0.3250    0.1278   -1.4583 C   0  0  0  0  0  0  0  0  0  0  0  0
   -0.6781    0.4349   -0.3817 C   0  0  0  0  0  0  0  0  0  0  0  0
   -0.9073    1.7087    0.0454 N   0  0  0  0  0  0  0  0  0  0  0  0
   -1.8058    1.5369    1.0309 C   0  0  0  0  0  0  0  0  0  0  0  0
   -2.4223    2.4852    1.8384 C   0  0  0  0  0  0  0  0  0  0  0  0
   -2.1440    3.8794    1.7079 N   0  0  0  0  0  0  0  0  0  0  0  0
   -3.3141    2.0378    2.7724 N   0  0  0  0  0  0  0  0  0  0  0  0
   -3.5930    0.7015    2.9118 C   0  0  0  0  0  0  0  0  0  0  0  0
   -4.4834    0.2942    3.8475 F   0  0  0  0  0  0  0  0  0  0  0  0
   -2.9778   -0.2218    2.1127 N   0  0  0  0  0  0  0  0  0  0  0  0
   -2.0932    0.2254    1.1882 C   0  0  0  0  0  0  0  0  0  0  0  0
   -1.3898   -0.5023    0.3097 N   0  0  0  0  0  0  0  0  0  0  0  0
   -1.4483   -1.9534    0.1141 C   0  0  0  0  0  0  0  0  0  0  0  0
   -2.4007   -2.3253   -1.0305 C   0  0  0  0  0  0  0  0  0  0  0  0
   -3.8606   -1.9990   -0.6983 C   0  0  0  0  0  0  0  0  0  0  0  0
   -4.7453   -2.4624   -1.7728 C   0  0  0  0  0  0  0  0  0  0  0  0
   -5.4726   -2.8428   -2.6557 C   0  0  0  0  0  0  0  0  0  0  0  0
    2.4030    1.3230   -0.6234 C   0  0  0  0  0  0  0  0  0  0  0  0
    1.7752    2.5414   -0.9319 O   0  0  0  0  0  0  0  0  0  0  0  0
    2.3346    3.8265   -0.6824 C   0  0  0  0  0  0  0  0  0  0  0  0
    3.6918    1.2768   -0.0590 C   0  0  0  0  0  0  0  0  0  0  0  0
    4.2932    0.0526    0.2387 C   0  0  0  0  0  0  0  0  0  0  0  0
    5.5206   -2.1239    1.8312 H   0  0  0  0  0  0  0  0  0  0  0  0
    5.6592   -3.6861    0.9409 H   0  0  0  0  0  0  0  0  0  0  0  0
    6.2509   -2.1702    0.1636 H   0  0  0  0  0  0  0  0  0  0  0  0
    1.8264   -2.0413   -0.7852 H   0  0  0  0  0  0  0  0  0  0  0  0
    0.2505    0.8987   -2.2549 H   0  0  0  0  0  0  0  0  0  0  0  0
    0.0926   -0.8411   -1.9462 H   0  0  0  0  0  0  0  0  0  0  0  0
   -1.4611    4.2273    0.9983 H   0  0  0  0  0  0  0  0  0  0  0  0
   -2.6227    4.5700    2.3274 H   0  0  0  0  0  0  0  0  0  0  0  0
   -0.4344   -2.3392   -0.1147 H   0  0  0  0  0  0  0  0  0  0  0  0
   -1.7739   -2.4524    1.0530 H   0  0  0  0  0  0  0  0  0  0  0  0
   -2.3042   -3.4173   -1.2198 H   0  0  0  0  0  0  0  0  0  0  0  0
   -2.1010   -1.7905   -1.9576 H   0  0  0  0  0  0  0  0  0  0  0  0
   -3.9926   -0.9026   -0.5863 H   0  0  0  0  0  0  0  0  0  0  0  0
   -4.1586   -2.4980    0.2484 H   0  0  0  0  0  0  0  0  0  0  0  0
   -6.1110   -3.1768   -3.4309 H   0  0  0  0  0  0  0  0  0  0  0  0
    3.2787    3.9497   -1.2538 H   0  0  0  0  0  0  0  0  0  0  0  0
    1.6156    4.6041   -1.0123 H   0  0  0  0  0  0  0  0  0  0  0  0
    2.5236    3.9558    0.4042 H   0  0  0  0  0  0  0  0  0  0  0  0
    4.2398    2.1841    0.1547 H   0  0  0  0  0  0  0  0  0  0  0  0
    5.2841    0.0542    0.6717 H   0  0  0  0  0  0  0  0  0  0  0  0
  1  2  1  0
  2  3  1  0
  3  4  2  0
  4  5  1  0
  5  6  1  0
  6  7  1  0
  7  8  2  0
  8  9  1  0
  9 10  2  0
 10 11  1  0
 10 12  1  0
 12 13  2  0
 13 14  1  0
 13 15  1  0
 15 16  2  0
 16 17  1  0
 17 18  1  0
 18 19  1  0
 19 20  1  0
 20 21  1  0
 21 22  3  0
  5 23  2  0
 23 24  1  0
 24 25  1  0
 23 26  1  0
 26 27  2  0
 27  3  1  0
 17  7  1  0
 16  9  1  0
  1 28  1  0
  1 29  1  0
  1 30  1  0
  4 31  1  0
  6 32  1  0
  6 33  1  0
 11 34  1  0
 11 35  1  0
 18 36  1  0
 18 37  1  0
 19 38  1  0
 19 39  1  0
 20 40  1  0
 20 41  1  0
 22 42  1  0
 25 43  1  0
 25 44  1  0
 25 45  1  0
 26 46  1  0
 27 47  1  0
M  END
$$$$
