
     RDKit          3D

 31 33  0  0  0  0  0  0  0  0999 V2000
    0.2744   -3.7496    1.9828 O   0  0  0  0  0  0  0  0  0  0  0  0
    0.1557   -2.8822    1.0785 C   0  0  0  0  0  0  0  0  0  0  0  0
   -0.0211   -3.2002   -0.2859 N   0  0  0  0  0  0  0  0  0  0  0  0
   -0.1089   -1.9347   -0.9234 C   0  0  0  0  0  0  0  0  0  0  0  0
   -0.2971   -1.8092   -2.1632 O   0  0  0  0  0  0  0  0  0  0  0  0
    0.0261   -0.7816    0.0489 C   0  0  0  0  0  0  0  0  0  0  0  0
    0.1847   -1.4842    1.3267 N   0  0  0  0  0  0  0  0  0  0  0  0
    1.2692    0.0829   -0.1778 C   0  0  0  0  0  0  0  0  0  0  0  0
    2.3178   -0.3076   -1.0406 C   0  0  0  0  0  0  0  0  0  0  0  0
    3.4536    0.4944   -1.1882 C   0  0  0  0  0  0  0  0  0  0  0  0
    3.5729    1.6830   -0.4670 C   0  0  0  0  0  0  0  0  0  0  0  0
    2.5610    2.0687    0.4126 C   0  0  0  0  0  0  0  0  0  0  0  0
    1.4232    1.2719    0.5652 C   0  0  0  0  0  0  0  0  0  0  0  0
   -1.2619    0.0425    0.0096 C   0  0  0  0  0  0  0  0  0  0  0  0
   -1.4756    0.9547   -1.0449 C   0  0  0  0  0  0  0  0  0  0  0  0
   -2.6582    1.6955   -1.1193 C   0  0  0  0  0  0  0  0  0  0  0  0
   -3.6524    1.5263   -0.1547 C   0  0  0  0  0  0  0  0  0  0  0  0
   -3.4693    0.6098    0.8819 C   0  0  0  0  0  0  0  0  0  0  0  0
   -2.2884   -0.1344    0.9627 C   0  0  0  0  0  0  0  0  0  0  0  0
   -0.0882   -4.1462   -0.7224 H   0  0  0  0  0  0  0  0  0  0  0  0
    0.3217   -1.0383    2.2618 H   0  0  0  0  0  0  0  0  0  0  0  0
    2.2737   -1.2317   -1.5999 H   0  0  0  0  0  0  0  0  0  0  0  0
    4.2467    0.1891   -1.8587 H   0  0  0  0  0  0  0  0  0  0  0  0
    4.4545    2.3002   -0.5822 H   0  0  0  0  0  0  0  0  0  0  0  0
    2.6602    2.9837    0.9821 H   0  0  0  0  0  0  0  0  0  0  0  0
    0.6584    1.5835    1.2659 H   0  0  0  0  0  0  0  0  0  0  0  0
   -0.7236    1.0927   -1.8118 H   0  0  0  0  0  0  0  0  0  0  0  0
   -2.8056    2.3982   -1.9292 H   0  0  0  0  0  0  0  0  0  0  0  0
   -4.5685    2.0995   -0.2151 H   0  0  0  0  0  0  0  0  0  0  0  0
   -4.2466    0.4711    1.6222 H   0  0  0  0  0  0  0  0  0  0  0  0
   -2.1884   -0.8479    1.7694 H   0  0  0  0  0  0  0  0  0  0  0  0
  1  2  2  0
  2  3  1  0
  3  4  1  0
  4  5  2  0
  4  6  1  0
  6  7  1  0
  6  8  1  0
  8  9  2  0
  9 10  1  0
 10 11  2  0
 11 12  1  0
 12 13  2  0
  6 14  1  0
 14 15  2  0
 15 16  1  0
 16 17  2  0
 17 18  1  0
 18 19  2  0
  7  2  1  0
 13  8  1  0
 19 14  1  0
  3 20  1  0
  7 21  1  0
  9 22  1  0
 10 23  1  0
 11 24  1  0
 12 25  1  0
 13 26  1  0
 15 27  1  0
 16 28  1  0
 17 29  1  0
 18 30  1  0
 19 31  1  0
M  END
$$$$
