
     RDKit          3D

 60 63  0  0  0  0  0  0  0  0999 V2000
    6.7580    2.6776   -2.1840 C   0  0  0  0  0  0  0  0  0  0  0  0
    5.4301    2.6858   -2.6973 O   0  0  0  0  0  0  0  0  0  0  0  0
    4.4004    1.8432   -2.2498 C   0  0  0  0  0  0  0  0  0  0  0  0
    3.1239    1.9758   -2.8184 C   0  0  0  0  0  0  0  0  0  0  0  0
    2.8216    3.1852   -4.0565 Cl  0  0  0  0  0  0  0  0  0  0  0  0
    2.0703    1.1627   -2.3872 C   0  0  0  0  0  0  0  0  0  0  0  0
    2.2818    0.1930   -1.3965 C   0  0  0  0  0  0  0  0  0  0  0  0
    1.1308   -0.6295   -0.8829 C   0  0  0  0  0  0  0  0  0  0  0  0
    0.5103    0.0294    0.2657 N   0  0  0  0  0  0  0  0  0  0  0  0
   -0.7109   -0.4578    0.8495 C   0  0  0  0  0  0  0  0  0  0  0  0
   -1.2979    0.1865    1.9561 C   0  0  0  0  0  0  0  0  0  0  0  0
   -2.5332   -0.2791    2.4153 C   0  0  0  0  0  0  0  0  0  0  0  0
   -3.1213   -1.3477    1.8209 N   0  0  0  0  0  0  0  0  0  0  0  0
   -2.5348   -1.9795    0.7694 C   0  0  0  0  0  0  0  0  0  0  0  0
   -1.3456   -1.5247    0.2921 N   0  0  0  0  0  0  0  0  0  0  0  0
   -3.1738   -3.1091    0.1523 N   0  0  0  0  0  0  0  0  0  0  0  0
   -2.6846   -3.7157   -1.0746 C   0  0  0  0  0  0  0  0  0  0  0  0
   -3.6606   -4.8395   -1.3960 C   0  0  0  0  0  0  0  0  0  0  0  0
   -4.9113   -4.5490   -0.5706 C   0  0  0  0  0  0  0  0  0  0  0  0
   -4.4441   -3.6700    0.5944 C   0  0  1  0  0  0  0  0  0  0  0  0
   -4.2455   -4.4838    1.8825 C   0  0  0  0  0  0  0  0  0  0  0  0
   -5.4806   -4.9609    2.3402 O   0  0  0  0  0  0  0  0  0  0  0  0
   -0.6485    1.3227    2.6248 C   0  0  0  0  0  0  0  0  0  0  0  0
    0.4638    1.1534    3.1943 O   0  0  0  0  0  0  0  0  0  0  0  0
   -1.2478    2.6235    2.5781 N   0  0  0  0  0  0  0  0  0  0  0  0
   -0.4773    3.8357    2.8428 C   0  0  0  0  0  0  0  0  0  0  0  0
    0.5964    3.9957    1.8096 C   0  0  0  0  0  0  0  0  0  0  0  0
    1.8972    3.7637    2.1352 N   0  0  0  0  0  0  0  0  0  0  0  0
    2.8788    3.8560    1.2006 C   0  0  0  0  0  0  0  0  0  0  0  0
    2.5573    4.1877   -0.1143 C   0  0  0  0  0  0  0  0  0  0  0  0
    1.2187    4.4072   -0.4358 C   0  0  0  0  0  0  0  0  0  0  0  0
    0.2651    4.3052    0.5267 N   0  0  0  0  0  0  0  0  0  0  0  0
    3.5526    0.0654   -0.8191 C   0  0  0  0  0  0  0  0  0  0  0  0
    4.6062    0.8789   -1.2442 C   0  0  0  0  0  0  0  0  0  0  0  0
    7.3555    3.4482   -2.7126 H   0  0  0  0  0  0  0  0  0  0  0  0
    7.2271    1.6856   -2.3540 H   0  0  0  0  0  0  0  0  0  0  0  0
    6.7491    2.9166   -1.0995 H   0  0  0  0  0  0  0  0  0  0  0  0
    1.0850    1.2930   -2.8181 H   0  0  0  0  0  0  0  0  0  0  0  0
    0.3766   -0.7626   -1.6893 H   0  0  0  0  0  0  0  0  0  0  0  0
    1.4855   -1.6391   -0.5821 H   0  0  0  0  0  0  0  0  0  0  0  0
    0.9487    0.9028    0.6367 H   0  0  0  0  0  0  0  0  0  0  0  0
   -3.0221    0.1968    3.2560 H   0  0  0  0  0  0  0  0  0  0  0  0
   -2.6828   -2.9598   -1.8900 H   0  0  0  0  0  0  0  0  0  0  0  0
   -1.6581   -4.1158   -0.9265 H   0  0  0  0  0  0  0  0  0  0  0  0
   -3.2262   -5.8129   -1.0783 H   0  0  0  0  0  0  0  0  0  0  0  0
   -3.8921   -4.8791   -2.4826 H   0  0  0  0  0  0  0  0  0  0  0  0
   -5.6315   -3.9754   -1.1949 H   0  0  0  0  0  0  0  0  0  0  0  0
   -5.4036   -5.4903   -0.2417 H   0  0  0  0  0  0  0  0  0  0  0  0
   -5.1814   -2.8552    0.7712 H   0  0  0  0  0  0  0  0  0  0  0  0
   -3.7917   -3.8375    2.6655 H   0  0  0  0  0  0  0  0  0  0  0  0
   -3.5564   -5.3370    1.6885 H   0  0  0  0  0  0  0  0  0  0  0  0
   -5.2861   -5.4886    3.1578 H   0  0  0  0  0  0  0  0  0  0  0  0
   -2.2262    2.7205    2.2237 H   0  0  0  0  0  0  0  0  0  0  0  0
   -1.1503    4.7190    2.8032 H   0  0  0  0  0  0  0  0  0  0  0  0
   -0.0380    3.7870    3.8627 H   0  0  0  0  0  0  0  0  0  0  0  0
    3.9077    3.6706    1.4785 H   0  0  0  0  0  0  0  0  0  0  0  0
    3.3290    4.2720   -0.8678 H   0  0  0  0  0  0  0  0  0  0  0  0
    0.9372    4.6563   -1.4501 H   0  0  0  0  0  0  0  0  0  0  0  0
    3.7254   -0.6587   -0.0324 H   0  0  0  0  0  0  0  0  0  0  0  0
    5.5743    0.7552   -0.7788 H   0  0  0  0  0  0  0  0  0  0  0  0
  1  2  1  0
  2  3  1  0
  3  4  2  0
  4  5  1  0
  4  6  1  0
  6  7  2  0
  7  8  1  0
  8  9  1  0
  9 10  1  0
 10 11  1  0
 11 12  2  0
 12 13  1  0
 13 14  2  0
 14 15  1  0
 14 16  1  0
 16 17  1  0
 17 18  1  0
 18 19  1  0
 19 20  1  0
 20 21  1  0
 21 22  1  0
 11 23  1  0
 23 24  2  0
 23 25  1  0
 25 26  1  0
 26 27  1  0
 27 28  2  0
 28 29  1  0
 29 30  2  0
 30 31  1  0
 31 32  2  0
  7 33  1  0
 33 34  2  0
 34  3  1  0
 15 10  2  0
 20 16  1  0
 32 27  1  0
  1 35  1  0
  1 36  1  0
  1 37  1  0
  6 38  1  0
  8 39  1  0
  8 40  1  0
  9 41  1  0
 12 42  1  0
 17 43  1  0
 17 44  1  0
 18 45  1  0
 18 46  1  0
 19 47  1  0
 19 48  1  0
 20 49  1  1
 21 50  1  0
 21 51  1  0
 22 52  1  0
 25 53  1  0
 26 54  1  0
 26 55  1  0
 29 56  1  0
 30 57  1  0
 31 58  1  0
 33 59  1  0
 34 60  1  0
M  END
$$$$
