
     RDKit          3D

 31 31  0  0  0  0  0  0  0  0999 V2000
   -2.1059    0.6115    0.1363 N   0  0  0  0  0  0  0  0  0  0  0  0
   -0.7680    0.1172   -0.2063 C   0  0  1  0  0  0  0  0  0  0  0  0
    0.2553    0.7064    0.7894 C   0  0  0  0  0  0  0  0  0  0  0  0
    1.6833    0.4215    0.3943 C   0  0  0  0  0  0  0  0  0  0  0  0
    2.4249   -0.5662    1.0646 C   0  0  0  0  0  0  0  0  0  0  0  0
    3.7401   -0.8426    0.6795 C   0  0  0  0  0  0  0  0  0  0  0  0
    4.3250   -0.1369   -0.3770 C   0  0  0  0  0  0  0  0  0  0  0  0
    5.9746   -0.4867   -0.8598 Cl  0  0  0  0  0  0  0  0  0  0  0  0
    3.5923    0.8467   -1.0493 C   0  0  0  0  0  0  0  0  0  0  0  0
    2.2766    1.1251   -0.6669 C   0  0  0  0  0  0  0  0  0  0  0  0
   -0.7797   -1.5170   -0.2395 B   0  0  0  0  0  4  0  0  0  0  0  0
   -1.9758   -1.9991   -0.9678 O   0  0  0  0  0  0  0  0  0  0  0  0
   -0.7966   -2.0575    1.1376 O   0  0  0  0  0  0  0  0  0  0  0  0
    0.4349   -1.9985   -0.9307 O   0  0  0  0  0  0  0  0  0  0  0  0
   -3.0341    1.1046   -0.8409 C   0  0  0  0  0  0  0  0  0  0  0  0
   -4.4046    1.5230   -0.4190 C   0  0  0  0  0  0  0  0  0  0  0  0
   -2.7148    1.1611   -2.0593 O   0  0  0  0  0  0  0  0  0  0  0  0
   -2.4340    0.5185    1.1250 H   0  0  0  0  0  0  0  0  0  0  0  0
   -0.4909    0.4695   -1.2240 H   0  0  0  0  0  0  0  0  0  0  0  0
    0.1196    1.8097    0.8288 H   0  0  0  0  0  0  0  0  0  0  0  0
    0.0517    0.3329    1.8171 H   0  0  0  0  0  0  0  0  0  0  0  0
    1.9832   -1.1261    1.8795 H   0  0  0  0  0  0  0  0  0  0  0  0
    4.3024   -1.6067    1.2010 H   0  0  0  0  0  0  0  0  0  0  0  0
    4.0402    1.3944   -1.8687 H   0  0  0  0  0  0  0  0  0  0  0  0
    1.7189    1.8864   -1.1983 H   0  0  0  0  0  0  0  0  0  0  0  0
   -1.8617   -1.7144   -1.9110 H   0  0  0  0  0  0  0  0  0  0  0  0
   -1.6993   -1.8714    1.5027 H   0  0  0  0  0  0  0  0  0  0  0  0
    0.3952   -2.9887   -0.8994 H   0  0  0  0  0  0  0  0  0  0  0  0
   -4.9214    2.0574   -1.2443 H   0  0  0  0  0  0  0  0  0  0  0  0
   -4.9954    0.6253   -0.1419 H   0  0  0  0  0  0  0  0  0  0  0  0
   -4.3360    2.2006    0.4576 H   0  0  0  0  0  0  0  0  0  0  0  0
  1  2  1  0
  2  3  1  0
  3  4  1  0
  4  5  2  0
  5  6  1  0
  6  7  2  0
  7  8  1  0
  7  9  1  0
  9 10  2  0
  2 11  1  0
 11 12  1  0
 11 13  1  0
 11 14  1  0
  1 15  1  0
 15 16  1  0
 15 17  2  0
 10  4  1  0
  1 18  1  0
  2 19  1  6
  3 20  1  0
  3 21  1  0
  5 22  1  0
  6 23  1  0
  9 24  1  0
 10 25  1  0
 12 26  1  0
 13 27  1  0
 14 28  1  0
 16 29  1  0
 16 30  1  0
 16 31  1  0
M  CHG  1  11  -1
M  END
$$$$
