
     RDKit          3D

 22 21  0  0  0  0  0  0  0  0999 V2000
   -0.8065    2.8339   -0.3227 O   0  0  0  0  0  0  0  0  0  0  0  0
   -0.8096    1.9179   -1.3698 C   0  0  0  0  0  0  0  0  0  0  0  0
   -1.6522    2.0270   -2.3004 O   0  0  0  0  0  0  0  0  0  0  0  0
    0.1903    0.8042   -1.3864 C   0  0  0  0  0  0  0  0  0  0  0  0
    0.0232   -0.0501   -0.1900 N   0  0  0  0  0  0  0  0  0  0  0  0
    1.2686   -0.7965    0.0943 C   0  0  0  0  0  0  0  0  0  0  0  0
    2.2572    0.0911    0.7840 C   0  0  0  0  0  0  0  0  0  0  0  0
    1.9361    0.6599    2.0123 O   0  0  0  0  0  0  0  0  0  0  0  0
    3.3772    0.3232    0.2552 O   0  0  0  0  0  0  0  0  0  0  0  0
   -1.1126   -0.9814   -0.3703 C   0  0  0  0  0  0  0  0  0  0  0  0
   -1.6178   -1.4470    0.9594 C   0  0  0  0  0  0  0  0  0  0  0  0
   -1.4871   -2.7832    1.3241 O   0  0  0  0  0  0  0  0  0  0  0  0
   -2.1517   -0.6263    1.7527 O   0  0  0  0  0  0  0  0  0  0  0  0
   -1.4770    3.5927   -0.2944 H   0  0  0  0  0  0  0  0  0  0  0  0
    1.1960    1.2785   -1.3999 H   0  0  0  0  0  0  0  0  0  0  0  0
    0.0966    0.2059   -2.3220 H   0  0  0  0  0  0  0  0  0  0  0  0
    1.0738   -1.6499    0.7799 H   0  0  0  0  0  0  0  0  0  0  0  0
    1.7048   -1.2186   -0.8404 H   0  0  0  0  0  0  0  0  0  0  0  0
    2.5922    1.2643    2.4922 H   0  0  0  0  0  0  0  0  0  0  0  0
   -0.8198   -1.8541   -0.9976 H   0  0  0  0  0  0  0  0  0  0  0  0
   -1.9629   -0.4803   -0.8835 H   0  0  0  0  0  0  0  0  0  0  0  0
   -1.8190   -3.1110    2.2233 H   0  0  0  0  0  0  0  0  0  0  0  0
  1  2  1  0
  2  3  2  0
  2  4  1  0
  4  5  1  0
  5  6  1  0
  6  7  1  0
  7  8  1  0
  7  9  2  0
  5 10  1  0
 10 11  1  0
 11 12  1  0
 11 13  2  0
  1 14  1  0
  4 15  1  0
  4 16  1  0
  6 17  1  0
  6 18  1  0
  8 19  1  0
 10 20  1  0
 10 21  1  0
 12 22  1  0
M  END
$$$$
