
     RDKit          3D

 63 62  0  0  0  0  0  0  0  0999 V2000
   -3.9214   -1.9229    2.1774 C   0  0  2  0  0  0  0  0  0  0  0  0
   -4.4984   -2.7279    3.3460 C   0  0  0  0  0  0  0  0  0  0  0  0
   -2.5604   -1.4819    2.4861 N   0  0  0  0  0  0  0  0  0  0  0  0
   -1.6103   -1.1856    1.4518 C   0  0  0  0  0  0  0  0  0  0  0  0
   -1.8009   -1.6136    0.2801 O   0  0  0  0  0  0  0  0  0  0  0  0
   -0.4415   -0.2750    1.7499 C   0  0  2  0  0  0  0  0  0  0  0  0
   -0.8636    1.2155    1.7141 C   0  0  0  0  0  0  0  0  0  0  0  0
   -1.6123    1.6852    0.4380 C   0  0  0  0  0  0  0  0  0  0  0  0
   -0.7060    1.7052   -0.8004 C   0  0  0  0  0  0  0  0  0  0  0  0
   -2.2027    3.0830    0.6675 C   0  0  0  0  0  0  0  0  0  0  0  0
    0.7045   -0.5388    0.8685 N   0  0  0  0  0  0  0  0  0  0  0  0
    2.0332   -0.0898    1.1853 C   0  0  0  0  0  0  0  0  0  0  0  0
    2.2570    0.5041    2.2755 O   0  0  0  0  0  0  0  0  0  0  0  0
    3.1747   -0.3165    0.2211 C   0  0  2  0  0  0  0  0  0  0  0  0
    2.9141    0.5132   -1.0632 C   0  0  0  0  0  0  0  0  0  0  0  0
    4.0827    0.5681   -2.0760 C   0  0  0  0  0  0  0  0  0  0  0  0
    3.6355    1.3139   -3.3407 C   0  0  0  0  0  0  0  0  0  0  0  0
    5.3301    1.2472   -1.4898 C   0  0  0  0  0  0  0  0  0  0  0  0
    3.3353   -1.8354   -0.0485 C   0  0  0  0  0  0  0  0  0  0  0  0
    4.7481   -2.2232   -0.3872 C   0  0  0  0  0  0  0  0  0  0  0  0
    5.6754   -1.9833    0.4325 O   0  0  0  0  0  0  0  0  0  0  0  0
    5.0414   -2.9059   -1.6097 N   0  0  0  0  0  0  0  0  0  0  0  0
    6.3153   -3.2467   -1.9186 O   0  0  0  0  0  0  0  0  0  0  0  0
   -4.7659   -0.7227    1.8557 C   0  0  0  0  0  0  0  0  0  0  0  0
   -5.2913   -0.0443    2.7816 O   0  0  0  0  0  0  0  0  0  0  0  0
   -4.8822   -0.3133    0.5246 O   0  0  0  0  0  0  0  0  0  0  0  0
   -5.5668    0.8751    0.1432 C   0  0  0  0  0  0  0  0  0  0  0  0
   -5.4197    1.0881   -1.3546 C   0  0  0  0  0  0  0  0  0  0  0  0
   -3.9070   -2.5955    1.2917 H   0  0  0  0  0  0  0  0  0  0  0  0
   -5.5308   -3.0617    3.1071 H   0  0  0  0  0  0  0  0  0  0  0  0
   -3.8716   -3.6268    3.5274 H   0  0  0  0  0  0  0  0  0  0  0  0
   -4.5207   -2.1186    4.2751 H   0  0  0  0  0  0  0  0  0  0  0  0
   -2.3582   -1.1395    3.4533 H   0  0  0  0  0  0  0  0  0  0  0  0
   -0.1200   -0.5045    2.7901 H   0  0  0  0  0  0  0  0  0  0  0  0
    0.0263    1.8605    1.8787 H   0  0  0  0  0  0  0  0  0  0  0  0
   -1.5305    1.3820    2.5894 H   0  0  0  0  0  0  0  0  0  0  0  0
   -2.4659    1.0061    0.2343 H   0  0  0  0  0  0  0  0  0  0  0  0
   -0.4601    0.6740   -1.1195 H   0  0  0  0  0  0  0  0  0  0  0  0
   -1.2275    2.1883   -1.6542 H   0  0  0  0  0  0  0  0  0  0  0  0
    0.2307    2.2652   -0.5941 H   0  0  0  0  0  0  0  0  0  0  0  0
   -2.7819    3.4083   -0.2233 H   0  0  0  0  0  0  0  0  0  0  0  0
   -2.8964    3.0707    1.5352 H   0  0  0  0  0  0  0  0  0  0  0  0
   -1.3957    3.8219    0.8623 H   0  0  0  0  0  0  0  0  0  0  0  0
    0.5772   -1.1110    0.0043 H   0  0  0  0  0  0  0  0  0  0  0  0
    4.0906    0.0671    0.7195 H   0  0  0  0  0  0  0  0  0  0  0  0
    2.6634    1.5569   -0.7677 H   0  0  0  0  0  0  0  0  0  0  0  0
    2.0183    0.1007   -1.5775 H   0  0  0  0  0  0  0  0  0  0  0  0
    4.3507   -0.4602   -2.3888 H   0  0  0  0  0  0  0  0  0  0  0  0
    4.4524    1.3208   -4.0937 H   0  0  0  0  0  0  0  0  0  0  0  0
    3.3598    2.3635   -3.1008 H   0  0  0  0  0  0  0  0  0  0  0  0
    2.7573    0.8078   -3.7959 H   0  0  0  0  0  0  0  0  0  0  0  0
    6.1053    1.3727   -2.2757 H   0  0  0  0  0  0  0  0  0  0  0  0
    5.7785    0.6260   -0.6889 H   0  0  0  0  0  0  0  0  0  0  0  0
    5.0760    2.2472   -1.0776 H   0  0  0  0  0  0  0  0  0  0  0  0
    3.0561   -2.4136    0.8600 H   0  0  0  0  0  0  0  0  0  0  0  0
    2.6437   -2.1569   -0.8568 H   0  0  0  0  0  0  0  0  0  0  0  0
    4.2787   -3.1212   -2.2901 H   0  0  0  0  0  0  0  0  0  0  0  0
    6.4258   -4.1652   -1.5627 H   0  0  0  0  0  0  0  0  0  0  0  0
   -6.6440    0.7864    0.4017 H   0  0  0  0  0  0  0  0  0  0  0  0
   -5.1331    1.7477    0.6785 H   0  0  0  0  0  0  0  0  0  0  0  0
   -5.9529    2.0143   -1.6557 H   0  0  0  0  0  0  0  0  0  0  0  0
   -4.3457    1.1883   -1.6198 H   0  0  0  0  0  0  0  0  0  0  0  0
   -5.8528    0.2262   -1.9048 H   0  0  0  0  0  0  0  0  0  0  0  0
  1  2  1  0
  1  3  1  0
  3  4  1  0
  4  5  2  0
  4  6  1  0
  6  7  1  0
  7  8  1  0
  8  9  1  0
  8 10  1  0
  6 11  1  0
 11 12  1  0
 12 13  2  0
 12 14  1  0
 14 15  1  0
 15 16  1  0
 16 17  1  0
 16 18  1  0
 14 19  1  0
 19 20  1  0
 20 21  2  0
 20 22  1  0
 22 23  1  0
  1 24  1  0
 24 25  2  0
 24 26  1  0
 26 27  1  0
 27 28  1  0
  1 29  1  6
  2 30  1  0
  2 31  1  0
  2 32  1  0
  3 33  1  0
  6 34  1  1
  7 35  1  0
  7 36  1  0
  8 37  1  0
  9 38  1  0
  9 39  1  0
  9 40  1  0
 10 41  1  0
 10 42  1  0
 10 43  1  0
 11 44  1  0
 14 45  1  1
 15 46  1  0
 15 47  1  0
 16 48  1  0
 17 49  1  0
 17 50  1  0
 17 51  1  0
 18 52  1  0
 18 53  1  0
 18 54  1  0
 19 55  1  0
 19 56  1  0
 22 57  1  0
 23 58  1  0
 27 59  1  0
 27 60  1  0
 28 61  1  0
 28 62  1  0
 28 63  1  0
M  END
$$$$
