
     RDKit          3D

 22 22  0  0  0  0  0  0  0  0999 V2000
    4.0282    0.0907   -0.1191 C   0  0  0  0  0  0  0  0  0  0  0  0
    2.5774    0.2813   -0.4196 C   0  0  0  0  0  0  0  0  0  0  0  0
    2.1855    1.3627   -0.9361 O   0  0  0  0  0  0  0  0  0  0  0  0
    1.6477   -0.7795   -0.1605 N   0  0  0  0  0  0  0  0  0  0  0  0
    0.2165   -0.6549   -0.4285 C   0  0  0  0  0  0  0  0  0  0  0  0
   -0.4525    0.2207    0.6330 C   0  0  0  0  0  0  0  0  0  0  0  0
   -1.9247    0.3220    0.3777 C   0  0  0  0  0  0  0  0  0  0  0  0
   -2.5565    1.2572   -0.4105 C   0  0  0  0  0  0  0  0  0  0  0  0
   -3.8746    0.9780   -0.4540 N   0  0  0  0  0  0  0  0  0  0  0  0
   -4.0076   -0.1305    0.3065 C   0  0  0  0  0  0  0  0  0  0  0  0
   -2.8379   -0.5562    0.8190 N   0  0  0  0  0  0  0  0  0  0  0  0
    4.1469   -0.3639    0.8867 H   0  0  0  0  0  0  0  0  0  0  0  0
    4.4777   -0.5812   -0.8794 H   0  0  0  0  0  0  0  0  0  0  0  0
    4.5604    1.0655   -0.1349 H   0  0  0  0  0  0  0  0  0  0  0  0
    2.0119   -1.6970    0.1827 H   0  0  0  0  0  0  0  0  0  0  0  0
   -0.2446   -1.6671   -0.4091 H   0  0  0  0  0  0  0  0  0  0  0  0
    0.0596   -0.2265   -1.4428 H   0  0  0  0  0  0  0  0  0  0  0  0
   -0.2848   -0.2206    1.6392 H   0  0  0  0  0  0  0  0  0  0  0  0
   -0.0085    1.2391    0.6247 H   0  0  0  0  0  0  0  0  0  0  0  0
   -2.0889    2.0835   -0.9295 H   0  0  0  0  0  0  0  0  0  0  0  0
   -4.9531   -0.6279    0.4771 H   0  0  0  0  0  0  0  0  0  0  0  0
   -2.6781   -1.3954    1.4195 H   0  0  0  0  0  0  0  0  0  0  0  0
  1  2  1  0
  2  3  2  0
  2  4  1  0
  4  5  1  0
  5  6  1  0
  6  7  1  0
  7  8  2  0
  8  9  1  0
  9 10  2  0
 10 11  1  0
 11  7  1  0
  1 12  1  0
  1 13  1  0
  1 14  1  0
  4 15  1  0
  5 16  1  0
  5 17  1  0
  6 18  1  0
  6 19  1  0
  8 20  1  0
 10 21  1  0
 11 22  1  0
M  END
$$$$
