
     RDKit          3D

 33 36  0  0  0  0  0  0  0  0999 V2000
    0.4066   -0.2785   -3.9664 O   0  0  0  0  0  0  0  0  0  0  0  0
    0.2207   -0.1882   -2.7219 C   0  0  0  0  0  0  0  0  0  0  0  0
   -1.0806   -0.0913   -2.2283 C   0  0  0  0  0  0  0  0  0  0  0  0
   -1.2894    0.0095   -0.8386 C   0  0  0  0  0  0  0  0  0  0  0  0
   -0.2318    0.0098   -0.0270 O   0  0  0  0  0  0  0  0  0  0  0  0
    1.0282   -0.0803   -0.4477 C   0  0  0  0  0  0  0  0  0  0  0  0
    1.3026   -0.1839   -1.8292 C   0  0  0  0  0  0  0  0  0  0  0  0
    2.6328   -0.2789   -2.2719 C   0  0  0  0  0  0  0  0  0  0  0  0
    3.6839   -0.2714   -1.3539 C   0  0  0  0  0  0  0  0  0  0  0  0
    3.4253   -0.1691    0.0198 C   0  0  0  0  0  0  0  0  0  0  0  0
    4.4844   -0.1618    0.9414 C   0  0  0  0  0  0  0  0  0  0  0  0
    4.2245   -0.0597    2.3100 C   0  0  0  0  0  0  0  0  0  0  0  0
    2.9098    0.0356    2.7698 C   0  0  0  0  0  0  0  0  0  0  0  0
    1.8451    0.0296    1.8648 C   0  0  0  0  0  0  0  0  0  0  0  0
    2.0882   -0.0725    0.4818 C   0  0  0  0  0  0  0  0  0  0  0  0
   -2.6486    0.1171   -0.2244 C   0  0  0  0  0  0  0  0  0  0  0  0
   -2.7594    0.2141    1.1791 C   0  0  0  0  0  0  0  0  0  0  0  0
   -4.0099    0.3164    1.7948 C   0  0  0  0  0  0  0  0  0  0  0  0
   -5.1717    0.3239    1.0239 C   0  0  0  0  0  0  0  0  0  0  0  0
   -5.0853    0.2292   -0.3648 C   0  0  0  0  0  0  0  0  0  0  0  0
   -3.8378    0.1265   -0.9889 C   0  0  0  0  0  0  0  0  0  0  0  0
   -1.8950   -0.0969   -2.9358 H   0  0  0  0  0  0  0  0  0  0  0  0
    2.8633   -0.3591   -3.3272 H   0  0  0  0  0  0  0  0  0  0  0  0
    4.7016   -0.3458   -1.7189 H   0  0  0  0  0  0  0  0  0  0  0  0
    5.5114   -0.2349    0.6037 H   0  0  0  0  0  0  0  0  0  0  0  0
    5.0447   -0.0545    3.0162 H   0  0  0  0  0  0  0  0  0  0  0  0
    2.7147    0.1145    3.8316 H   0  0  0  0  0  0  0  0  0  0  0  0
    0.8357    0.1050    2.2500 H   0  0  0  0  0  0  0  0  0  0  0  0
   -1.8785    0.2113    1.8086 H   0  0  0  0  0  0  0  0  0  0  0  0
   -4.0773    0.3900    2.8726 H   0  0  0  0  0  0  0  0  0  0  0  0
   -6.1392    0.4032    1.5026 H   0  0  0  0  0  0  0  0  0  0  0  0
   -5.9885    0.2352   -0.9615 H   0  0  0  0  0  0  0  0  0  0  0  0
   -3.8304    0.0560   -2.0644 H   0  0  0  0  0  0  0  0  0  0  0  0
  1  2  2  0
  2  3  1  0
  3  4  2  0
  4  5  1  0
  5  6  1  0
  6  7  2  0
  7  8  1  0
  8  9  2  0
  9 10  1  0
 10 11  2  0
 11 12  1  0
 12 13  2  0
 13 14  1  0
 14 15  2  0
  4 16  1  0
 16 17  2  0
 17 18  1  0
 18 19  2  0
 19 20  1  0
 20 21  2  0
  7  2  1  0
 15 10  1  0
 21 16  1  0
 15  6  1  0
  3 22  1  0
  8 23  1  0
  9 24  1  0
 11 25  1  0
 12 26  1  0
 13 27  1  0
 14 28  1  0
 17 29  1  0
 18 30  1  0
 19 31  1  0
 20 32  1  0
 21 33  1  0
M  END
$$$$
