
     RDKit          3D

 53 56  0  0  0  0  0  0  0  0999 V2000
   -1.1232   -0.4023   -1.1484 C   0  0  2  0  0  0  0  0  0  0  0  0
   -2.1923    0.0918   -2.1140 C   0  0  0  0  0  0  0  0  0  0  0  0
   -3.1144   -1.1179   -2.3280 C   0  0  0  0  0  0  0  0  0  0  0  0
   -2.6939   -2.2170   -1.3112 C   0  0  1  0  0  0  0  0  0  0  0  0
   -3.8404   -2.7876   -0.7269 O   0  0  0  0  0  0  0  0  0  0  0  0
   -1.9650   -3.2784   -2.0523 C   0  0  0  0  0  0  0  0  0  0  0  0
   -1.3778   -4.1404   -2.6576 C   0  0  0  0  0  0  0  0  0  0  0  0
   -1.7928   -1.4668   -0.2615 C   0  0  2  0  0  0  0  0  0  0  0  0
   -2.6521   -0.9167    0.9563 C   0  0  0  0  0  0  0  0  0  0  0  0
   -3.8225    0.0291    0.6750 C   0  0  0  0  0  0  0  0  0  0  0  0
   -0.6263   -2.3046    0.3497 C   0  0  0  0  0  0  0  0  0  0  0  0
    0.3802   -1.4259    1.1398 C   0  0  0  0  0  0  0  0  0  0  0  0
    0.8732   -0.1645    0.3608 C   0  0  2  0  0  0  0  0  0  0  0  0
    1.6975    0.8010    1.2638 C   0  0  1  0  0  0  0  0  0  0  0  0
    2.9256    0.0835    1.8760 C   0  0  0  0  0  0  0  0  0  0  0  0
    3.8334    1.0642    2.6141 C   0  0  0  0  0  0  0  0  0  0  0  0
    4.2572    2.1642    1.6913 C   0  0  0  0  0  0  0  0  0  0  0  0
    3.2726    2.6823    0.7129 C   0  0  0  0  0  0  0  0  0  0  0  0
    2.1088    2.0469    0.4764 C   0  0  0  0  0  0  0  0  0  0  0  0
    1.0767    2.7261   -0.3940 C   0  0  0  0  0  0  0  0  0  0  0  0
    0.2883    1.7150   -1.2273 C   0  0  0  0  0  0  0  0  0  0  0  0
   -0.2947    0.6081   -0.3321 C   0  0  1  0  0  0  0  0  0  0  0  0
    5.4440    2.6797    1.8455 N   0  0  0  0  0  0  0  0  0  0  0  0
    5.9926    3.6831    1.0705 O   0  0  0  0  0  0  0  0  0  0  0  0
   -0.3905   -0.9226   -1.8148 H   0  0  0  0  0  0  0  0  0  0  0  0
   -1.7334    0.4054   -3.0779 H   0  0  0  0  0  0  0  0  0  0  0  0
   -2.7501    0.9592   -1.7138 H   0  0  0  0  0  0  0  0  0  0  0  0
   -3.0355   -1.4671   -3.3829 H   0  0  0  0  0  0  0  0  0  0  0  0
   -4.1726   -0.8134   -2.1877 H   0  0  0  0  0  0  0  0  0  0  0  0
   -3.5349   -3.4848   -0.0880 H   0  0  0  0  0  0  0  0  0  0  0  0
   -0.8617   -4.8965   -3.1884 H   0  0  0  0  0  0  0  0  0  0  0  0
   -2.0204   -0.3872    1.6924 H   0  0  0  0  0  0  0  0  0  0  0  0
   -3.0612   -1.7852    1.5163 H   0  0  0  0  0  0  0  0  0  0  0  0
   -4.3713    0.2050    1.6246 H   0  0  0  0  0  0  0  0  0  0  0  0
   -4.5501   -0.4020   -0.0351 H   0  0  0  0  0  0  0  0  0  0  0  0
   -3.4627    1.0190    0.3358 H   0  0  0  0  0  0  0  0  0  0  0  0
   -0.0447   -2.8219   -0.4428 H   0  0  0  0  0  0  0  0  0  0  0  0
   -1.0321   -3.0948    1.0181 H   0  0  0  0  0  0  0  0  0  0  0  0
   -0.0425   -1.1338    2.1224 H   0  0  0  0  0  0  0  0  0  0  0  0
    1.2544   -2.0721    1.3681 H   0  0  0  0  0  0  0  0  0  0  0  0
    1.5542   -0.5366   -0.4398 H   0  0  0  0  0  0  0  0  0  0  0  0
    1.0464    1.1401    2.1005 H   0  0  0  0  0  0  0  0  0  0  0  0
    3.5097   -0.4239    1.0760 H   0  0  0  0  0  0  0  0  0  0  0  0
    2.5955   -0.6844    2.6071 H   0  0  0  0  0  0  0  0  0  0  0  0
    3.2915    1.5028    3.4799 H   0  0  0  0  0  0  0  0  0  0  0  0
    4.7227    0.5172    2.9974 H   0  0  0  0  0  0  0  0  0  0  0  0
    3.4646    3.6132    0.2000 H   0  0  0  0  0  0  0  0  0  0  0  0
    1.5511    3.4522   -1.0908 H   0  0  0  0  0  0  0  0  0  0  0  0
    0.3779    3.2917    0.2599 H   0  0  0  0  0  0  0  0  0  0  0  0
   -0.5311    2.2583   -1.7449 H   0  0  0  0  0  0  0  0  0  0  0  0
    0.9519    1.2742   -2.0043 H   0  0  0  0  0  0  0  0  0  0  0  0
   -0.9365    1.0993    0.4290 H   0  0  0  0  0  0  0  0  0  0  0  0
    5.5565    4.0355    0.2298 H   0  0  0  0  0  0  0  0  0  0  0  0
  1  2  1  0
  2  3  1  0
  3  4  1  0
  4  5  1  0
  4  6  1  6
  6  7  3  0
  4  8  1  0
  8  9  1  1
  9 10  1  0
  8 11  1  0
 11 12  1  0
 12 13  1  0
 13 14  1  0
 14 15  1  0
 15 16  1  0
 16 17  1  0
 17 18  1  0
 18 19  2  0
 19 20  1  0
 20 21  1  0
 21 22  1  0
 17 23  2  3
 23 24  1  0
  8  1  1  0
 22 13  1  0
 22  1  1  0
 19 14  1  0
  1 25  1  6
  2 26  1  0
  2 27  1  0
  3 28  1  0
  3 29  1  0
  5 30  1  0
  7 31  1  0
  9 32  1  0
  9 33  1  0
 10 34  1  0
 10 35  1  0
 10 36  1  0
 11 37  1  0
 11 38  1  0
 12 39  1  0
 12 40  1  0
 13 41  1  6
 14 42  1  1
 15 43  1  0
 15 44  1  0
 16 45  1  0
 16 46  1  0
 18 47  1  0
 20 48  1  0
 20 49  1  0
 21 50  1  0
 21 51  1  0
 22 52  1  1
 24 53  1  0
M  END
$$$$
