
     RDKit          3D

 30 30  0  0  0  0  0  0  0  0999 V2000
   -4.1329   -0.4638    1.0386 C   0  0  0  0  0  0  0  0  0  0  0  0
   -3.3028    0.0665   -0.1335 C   0  0  0  0  0  0  0  0  0  0  0  0
   -3.8017   -0.5094   -1.4633 C   0  0  0  0  0  0  0  0  0  0  0  0
   -1.8443   -0.2502    0.0758 C   0  0  0  0  0  0  0  0  0  0  0  0
   -1.4407   -1.4401   -0.0417 O   0  0  0  0  0  0  0  0  0  0  0  0
   -0.9383    0.7855    0.4889 N   0  0  0  0  0  0  0  0  0  0  0  0
    0.4927    0.6429    0.5009 C   0  0  0  0  0  0  0  0  0  0  0  0
    1.1619   -0.1057   -0.4810 C   0  0  0  0  0  0  0  0  0  0  0  0
    2.5655   -0.2369   -0.4669 C   0  0  0  0  0  0  0  0  0  0  0  0
    3.3107    0.4679    0.5166 C   0  0  0  0  0  0  0  0  0  0  0  0
    2.6291    1.2183    1.4889 C   0  0  0  0  0  0  0  0  0  0  0  0
    1.2384    1.3090    1.4771 C   0  0  0  0  0  0  0  0  0  0  0  0
    4.7485    0.4502    0.5378 N   0  0  0  0  0  4  0  0  0  0  0  0
    5.4635    0.6317   -0.6230 O   0  0  0  0  0  1  0  0  0  0  0  0
    5.3573    0.4707    1.6276 O   0  0  0  0  0  0  0  0  0  0  0  0
    3.2367   -1.1018   -1.5159 C   0  0  0  0  0  0  0  0  0  0  0  0
    4.2736   -1.8272   -0.9562 F   0  0  0  0  0  0  0  0  0  0  0  0
    2.3449   -2.0072   -2.0661 F   0  0  0  0  0  0  0  0  0  0  0  0
    3.7282   -0.3004   -2.5296 F   0  0  0  0  0  0  0  0  0  0  0  0
   -4.0525   -1.5701    1.1098 H   0  0  0  0  0  0  0  0  0  0  0  0
   -3.7767   -0.0158    1.9911 H   0  0  0  0  0  0  0  0  0  0  0  0
   -5.2013   -0.1902    0.9048 H   0  0  0  0  0  0  0  0  0  0  0  0
   -3.4320    1.1704   -0.1764 H   0  0  0  0  0  0  0  0  0  0  0  0
   -4.8583   -0.2121   -1.6347 H   0  0  0  0  0  0  0  0  0  0  0  0
   -3.7397   -1.6191   -1.4635 H   0  0  0  0  0  0  0  0  0  0  0  0
   -3.1897   -0.1148   -2.3027 H   0  0  0  0  0  0  0  0  0  0  0  0
   -1.3470    1.6615    0.8867 H   0  0  0  0  0  0  0  0  0  0  0  0
    0.5868   -0.5728   -1.2691 H   0  0  0  0  0  0  0  0  0  0  0  0
    3.1814    1.7590    2.2472 H   0  0  0  0  0  0  0  0  0  0  0  0
    0.7388    1.9039    2.2316 H   0  0  0  0  0  0  0  0  0  0  0  0
  1  2  1  0
  2  3  1  0
  2  4  1  0
  4  5  2  0
  4  6  1  0
  6  7  1  0
  7  8  2  0
  8  9  1  0
  9 10  2  0
 10 11  1  0
 11 12  2  0
 10 13  1  0
 13 14  1  0
 13 15  2  0
  9 16  1  0
 16 17  1  0
 16 18  1  0
 16 19  1  0
 12  7  1  0
  1 20  1  0
  1 21  1  0
  1 22  1  0
  2 23  1  0
  3 24  1  0
  3 25  1  0
  3 26  1  0
  6 27  1  0
  8 28  1  0
 11 29  1  0
 12 30  1  0
M  CHG  2  13   1  14  -1
M  END
$$$$
