
     RDKit          3D

 45 46  0  0  0  0  0  0  0  0999 V2000
   -3.7898    1.0924    2.2101 C   0  0  0  0  0  0  0  0  0  0  0  0
   -4.1016    0.7085    0.7648 C   0  0  0  0  0  0  0  0  0  0  0  0
   -3.6733   -0.6745    0.4760 N   0  0  0  0  0  0  0  0  0  0  0  0
   -4.1656   -1.1586   -0.8156 C   0  0  0  0  0  0  0  0  0  0  0  0
   -3.2569   -2.3103   -1.2313 C   0  0  0  0  0  0  0  0  0  0  0  0
   -2.1026   -2.3016   -0.2390 C   0  0  0  0  0  0  0  0  0  0  0  0
   -2.2271   -0.9706    0.5054 C   0  0  1  0  0  0  0  0  0  0  0  0
   -1.3375    0.1171   -0.1597 C   0  0  0  0  0  0  0  0  0  0  0  0
    0.0838   -0.2122   -0.0412 N   0  0  0  0  0  0  0  0  0  0  0  0
    1.0948    0.6353   -0.6042 C   0  0  0  0  0  0  0  0  0  0  0  0
    0.7688    1.5560   -1.4025 O   0  0  0  0  0  0  0  0  0  0  0  0
    2.5217    0.4355   -0.2597 C   0  0  0  0  0  0  0  0  0  0  0  0
    3.5029    0.4855   -1.2753 C   0  0  0  0  0  0  0  0  0  0  0  0
    3.1062    0.7534   -2.5969 O   0  0  0  0  0  0  0  0  0  0  0  0
    3.9911    0.8252   -3.7102 C   0  0  0  0  0  0  0  0  0  0  0  0
    4.8508    0.2467   -0.9467 C   0  0  0  0  0  0  0  0  0  0  0  0
    5.2180   -0.0502    0.3646 C   0  0  0  0  0  0  0  0  0  0  0  0
    4.2552   -0.0944    1.3723 C   0  0  0  0  0  0  0  0  0  0  0  0
    4.8001   -0.4839    3.1653 Br  0  0  0  0  0  0  0  0  0  0  0  0
    2.9109    0.1696    1.0754 C   0  0  0  0  0  0  0  0  0  0  0  0
    1.9792    0.1669    2.1189 O   0  0  0  0  0  0  0  0  0  0  0  0
    1.3839    1.3659    2.6021 C   0  0  0  0  0  0  0  0  0  0  0  0
   -4.2083    2.0980    2.4258 H   0  0  0  0  0  0  0  0  0  0  0  0
   -2.6952    1.1243    2.3871 H   0  0  0  0  0  0  0  0  0  0  0  0
   -4.2487    0.3579    2.9055 H   0  0  0  0  0  0  0  0  0  0  0  0
   -3.6590    1.4395    0.0556 H   0  0  0  0  0  0  0  0  0  0  0  0
   -5.2051    0.7763    0.6398 H   0  0  0  0  0  0  0  0  0  0  0  0
   -4.1246   -0.3555   -1.5872 H   0  0  0  0  0  0  0  0  0  0  0  0
   -5.2153   -1.5085   -0.7111 H   0  0  0  0  0  0  0  0  0  0  0  0
   -3.8004   -3.2796   -1.1879 H   0  0  0  0  0  0  0  0  0  0  0  0
   -2.8811   -2.1503   -2.2658 H   0  0  0  0  0  0  0  0  0  0  0  0
   -1.1293   -2.4359   -0.7584 H   0  0  0  0  0  0  0  0  0  0  0  0
   -2.2319   -3.1378    0.4834 H   0  0  0  0  0  0  0  0  0  0  0  0
   -1.9034   -1.1046    1.5612 H   0  0  0  0  0  0  0  0  0  0  0  0
   -1.6064    0.2216   -1.2335 H   0  0  0  0  0  0  0  0  0  0  0  0
   -1.4858    1.0967    0.3365 H   0  0  0  0  0  0  0  0  0  0  0  0
    0.3799   -1.0585    0.4961 H   0  0  0  0  0  0  0  0  0  0  0  0
    4.5063   -0.1483   -3.8520 H   0  0  0  0  0  0  0  0  0  0  0  0
    4.7355    1.6344   -3.5548 H   0  0  0  0  0  0  0  0  0  0  0  0
    3.4053    1.0528   -4.6241 H   0  0  0  0  0  0  0  0  0  0  0  0
    5.6239    0.2755   -1.7021 H   0  0  0  0  0  0  0  0  0  0  0  0
    6.2575   -0.2417    0.5987 H   0  0  0  0  0  0  0  0  0  0  0  0
    0.6853    1.1174    3.4269 H   0  0  0  0  0  0  0  0  0  0  0  0
    0.8169    1.8779    1.7983 H   0  0  0  0  0  0  0  0  0  0  0  0
    2.1707    2.0469    2.9895 H   0  0  0  0  0  0  0  0  0  0  0  0
  1  2  1  0
  2  3  1  0
  3  4  1  0
  4  5  1  0
  5  6  1  0
  6  7  1  0
  7  8  1  0
  8  9  1  0
  9 10  1  0
 10 11  2  0
 10 12  1  0
 12 13  2  0
 13 14  1  0
 14 15  1  0
 13 16  1  0
 16 17  2  0
 17 18  1  0
 18 19  1  0
 18 20  2  0
 20 21  1  0
 21 22  1  0
  7  3  1  0
 20 12  1  0
  1 23  1  0
  1 24  1  0
  1 25  1  0
  2 26  1  0
  2 27  1  0
  4 28  1  0
  4 29  1  0
  5 30  1  0
  5 31  1  0
  6 32  1  0
  6 33  1  0
  7 34  1  1
  8 35  1  0
  8 36  1  0
  9 37  1  0
 15 38  1  0
 15 39  1  0
 15 40  1  0
 16 41  1  0
 17 42  1  0
 22 43  1  0
 22 44  1  0
 22 45  1  0
M  END
$$$$
