
     RDKit          3D

 54 53  0  0  0  0  0  0  0  0999 V2000
    7.2141    0.1838    1.5068 C   0  0  0  0  0  0  0  0  0  0  0  0
    7.4438    0.8828    0.1871 C   0  0  0  0  0  0  0  0  0  0  0  0
    8.8437    0.9972   -0.3590 C   0  0  0  0  0  0  0  0  0  0  0  0
    6.4296    1.4280   -0.5206 C   0  0  0  0  0  0  0  0  0  0  0  0
    4.9772    1.3592   -0.1197 C   0  0  0  0  0  0  0  0  0  0  0  0
    4.3203    0.0899   -0.6731 C   0  0  0  0  0  0  0  0  0  0  0  0
    2.8799   -0.0105   -0.2213 C   0  0  0  0  0  0  0  0  0  0  0  0
    2.5295   -0.9475    0.9112 C   0  0  0  0  0  0  0  0  0  0  0  0
    1.9455    0.7553   -0.8301 C   0  0  0  0  0  0  0  0  0  0  0  0
    0.4740    0.7272   -0.5012 C   0  0  0  0  0  0  0  0  0  0  0  0
   -0.2453   -0.3529   -1.3171 C   0  0  0  0  0  0  0  0  0  0  0  0
   -1.7168   -0.3995   -0.9694 C   0  0  0  0  0  0  0  0  0  0  0  0
   -2.7213    0.2006   -1.9248 C   0  0  0  0  0  0  0  0  0  0  0  0
   -2.1002   -0.9793    0.1905 C   0  0  0  0  0  0  0  0  0  0  0  0
   -3.5299   -1.0758    0.6470 C   0  0  0  0  0  0  0  0  0  0  0  0
   -4.2400   -1.9414   -0.2055 O   0  0  0  0  0  0  0  0  0  0  0  0
   -5.5290   -1.9379    0.2259 N   0  0  0  0  0  0  0  0  0  0  0  0
   -6.5020   -1.0822   -0.3821 C   0  0  0  0  0  0  0  0  0  0  0  0
   -6.1705   -0.3313   -1.3384 O   0  0  0  0  0  0  0  0  0  0  0  0
   -7.8991   -1.0328    0.1487 C   0  0  0  0  0  0  0  0  0  0  0  0
   -7.9854    0.1122    1.5590 P   0  0  0  0  0  5  0  0  0  0  0  0
   -9.5785    0.1933    2.1233 O   0  0  0  0  0  0  0  0  0  0  0  0
   -7.4758    1.6529    1.0782 O   0  0  0  0  0  0  0  0  0  0  0  0
   -7.0894   -0.3850    2.6704 O   0  0  0  0  0  0  0  0  0  0  0  0
    8.1596   -0.2239    1.9207 H   0  0  0  0  0  0  0  0  0  0  0  0
    6.8017    0.9002    2.2476 H   0  0  0  0  0  0  0  0  0  0  0  0
    6.5095   -0.6630    1.3785 H   0  0  0  0  0  0  0  0  0  0  0  0
    9.5880    0.5216    0.3130 H   0  0  0  0  0  0  0  0  0  0  0  0
    8.9013    0.4986   -1.3498 H   0  0  0  0  0  0  0  0  0  0  0  0
    9.1152    2.0679   -0.4751 H   0  0  0  0  0  0  0  0  0  0  0  0
    6.6542    1.9312   -1.4580 H   0  0  0  0  0  0  0  0  0  0  0  0
    4.4603    2.2483   -0.5412 H   0  0  0  0  0  0  0  0  0  0  0  0
    4.8630    1.4087    0.9840 H   0  0  0  0  0  0  0  0  0  0  0  0
    4.3644    0.0954   -1.7850 H   0  0  0  0  0  0  0  0  0  0  0  0
    4.8888   -0.8029   -0.3378 H   0  0  0  0  0  0  0  0  0  0  0  0
    3.4264   -1.4858    1.2826 H   0  0  0  0  0  0  0  0  0  0  0  0
    2.1097   -0.3727    1.7628 H   0  0  0  0  0  0  0  0  0  0  0  0
    1.7927   -1.7044    0.5740 H   0  0  0  0  0  0  0  0  0  0  0  0
    2.2534    1.4260   -1.6284 H   0  0  0  0  0  0  0  0  0  0  0  0
    0.0405    1.7171   -0.7620 H   0  0  0  0  0  0  0  0  0  0  0  0
    0.3125    0.5789    0.5872 H   0  0  0  0  0  0  0  0  0  0  0  0
   -0.1109   -0.1360   -2.3993 H   0  0  0  0  0  0  0  0  0  0  0  0
    0.2083   -1.3503   -1.1333 H   0  0  0  0  0  0  0  0  0  0  0  0
   -3.3151    0.9855   -1.4114 H   0  0  0  0  0  0  0  0  0  0  0  0
   -2.2195    0.6738   -2.7943 H   0  0  0  0  0  0  0  0  0  0  0  0
   -3.4005   -0.5884   -2.3085 H   0  0  0  0  0  0  0  0  0  0  0  0
   -1.3407   -1.3893    0.8520 H   0  0  0  0  0  0  0  0  0  0  0  0
   -3.9811   -0.0576    0.6602 H   0  0  0  0  0  0  0  0  0  0  0  0
   -3.5396   -1.4783    1.6851 H   0  0  0  0  0  0  0  0  0  0  0  0
   -5.8200   -2.6076    0.9738 H   0  0  0  0  0  0  0  0  0  0  0  0
   -8.5954   -0.6865   -0.6443 H   0  0  0  0  0  0  0  0  0  0  0  0
   -8.2172   -2.0444    0.4771 H   0  0  0  0  0  0  0  0  0  0  0  0
  -10.1027    0.5323    1.3544 H   0  0  0  0  0  0  0  0  0  0  0  0
   -8.0814    1.8994    0.3343 H   0  0  0  0  0  0  0  0  0  0  0  0
  1  2  1  0
  2  3  1  0
  2  4  2  3
  4  5  1  0
  5  6  1  0
  6  7  1  0
  7  8  1  0
  7  9  2  0
  9 10  1  0
 10 11  1  0
 11 12  1  0
 12 13  1  0
 12 14  2  0
 14 15  1  0
 15 16  1  0
 16 17  1  0
 17 18  1  0
 18 19  2  0
 18 20  1  0
 20 21  1  0
 21 22  1  0
 21 23  1  0
 21 24  2  0
  1 25  1  0
  1 26  1  0
  1 27  1  0
  3 28  1  0
  3 29  1  0
  3 30  1  0
  4 31  1  0
  5 32  1  0
  5 33  1  0
  6 34  1  0
  6 35  1  0
  8 36  1  0
  8 37  1  0
  8 38  1  0
  9 39  1  0
 10 40  1  0
 10 41  1  0
 11 42  1  0
 11 43  1  0
 13 44  1  0
 13 45  1  0
 13 46  1  0
 14 47  1  0
 15 48  1  0
 15 49  1  0
 17 50  1  0
 20 51  1  0
 20 52  1  0
 22 53  1  0
 23 54  1  0
M  END
$$$$
