
     RDKit          3D

 31 32  0  0  0  0  0  0  0  0999 V2000
   -2.9496    3.4141    0.3757 C   0  0  0  0  0  0  0  0  0  0  0  0
   -2.3072    2.0672    0.4426 C   0  0  0  0  0  0  0  0  0  0  0  0
   -1.4461    1.6919    1.4113 N   0  0  0  0  0  0  0  0  0  0  0  0
   -1.0980    0.4626    1.1574 O   0  0  0  0  0  0  0  0  0  0  0  0
   -1.6899    0.0237    0.0711 C   0  0  0  0  0  0  0  0  0  0  0  0
   -1.5272   -1.2919   -0.4638 N   0  0  0  0  0  0  0  0  0  0  0  0
   -0.4501   -2.4262    0.2770 S   0  0  0  0  0  6  0  0  0  0  0  0
   -0.4227   -3.6912   -0.5331 O   0  0  0  0  0  0  0  0  0  0  0  0
   -0.9481   -2.7370    1.6608 O   0  0  0  0  0  0  0  0  0  0  0  0
    1.1741   -1.7507    0.3433 C   0  0  0  0  0  0  0  0  0  0  0  0
    1.6482   -0.9637   -0.7148 C   0  0  0  0  0  0  0  0  0  0  0  0
    2.9356   -0.4207   -0.6661 C   0  0  0  0  0  0  0  0  0  0  0  0
    3.7624   -0.6635    0.4400 C   0  0  0  0  0  0  0  0  0  0  0  0
    5.0791   -0.1081    0.4902 N   0  0  0  0  0  0  0  0  0  0  0  0
    3.2897   -1.4561    1.4957 C   0  0  0  0  0  0  0  0  0  0  0  0
    2.0018   -1.9985    1.4470 C   0  0  0  0  0  0  0  0  0  0  0  0
   -2.4796    1.0254   -0.4503 C   0  0  0  0  0  0  0  0  0  0  0  0
   -3.3823    0.9601   -1.6419 C   0  0  0  0  0  0  0  0  0  0  0  0
   -2.6064    3.9458   -0.5361 H   0  0  0  0  0  0  0  0  0  0  0  0
   -2.6755    4.0146    1.2684 H   0  0  0  0  0  0  0  0  0  0  0  0
   -4.0534    3.3016    0.3433 H   0  0  0  0  0  0  0  0  0  0  0  0
   -2.0486   -1.5790   -1.3212 H   0  0  0  0  0  0  0  0  0  0  0  0
    1.0214   -0.7694   -1.5760 H   0  0  0  0  0  0  0  0  0  0  0  0
    3.2886    0.1879   -1.4891 H   0  0  0  0  0  0  0  0  0  0  0  0
    5.4401    0.4831   -0.2915 H   0  0  0  0  0  0  0  0  0  0  0  0
    5.7025   -0.2838    1.3096 H   0  0  0  0  0  0  0  0  0  0  0  0
    3.9187   -1.6534    2.3546 H   0  0  0  0  0  0  0  0  0  0  0  0
    1.6527   -2.6102    2.2689 H   0  0  0  0  0  0  0  0  0  0  0  0
   -2.8587    0.4640   -2.4854 H   0  0  0  0  0  0  0  0  0  0  0  0
   -4.2935    0.3816   -1.3841 H   0  0  0  0  0  0  0  0  0  0  0  0
   -3.6782    1.9798   -1.9645 H   0  0  0  0  0  0  0  0  0  0  0  0
  1  2  1  0
  2  3  2  0
  3  4  1  0
  4  5  1  0
  5  6  1  0
  6  7  1  0
  7  8  2  0
  7  9  2  0
  7 10  1  0
 10 11  2  0
 11 12  1  0
 12 13  2  0
 13 14  1  0
 13 15  1  0
 15 16  2  0
  5 17  2  0
 17 18  1  0
 17  2  1  0
 16 10  1  0
  1 19  1  0
  1 20  1  0
  1 21  1  0
  6 22  1  0
 11 23  1  0
 12 24  1  0
 14 25  1  0
 14 26  1  0
 15 27  1  0
 16 28  1  0
 18 29  1  0
 18 30  1  0
 18 31  1  0
M  END
$$$$
