
     RDKit          3D

 37 38  0  0  0  0  0  0  0  0999 V2000
   -5.0235   -0.1366    1.5918 C   0  0  1  0  0  0  0  0  0  0  0  0
   -6.5191   -0.7833    2.4124 S   0  0  0  0  0  0  0  0  0  0  0  0
   -3.8372   -0.1146    2.5249 C   0  0  0  0  0  0  0  0  0  0  0  0
   -2.6483   -0.2423    1.5917 C   0  0  0  0  0  0  0  0  0  0  0  0
   -3.0982   -0.9770    0.3983 N   0  0  0  0  0  0  0  0  0  0  0  0
   -4.5682   -1.0201    0.4402 C   0  0  0  0  0  0  0  0  0  0  0  0
   -2.5300   -0.2047   -1.0634 S   0  0  0  0  0  6  0  0  0  0  0  0
   -2.9545   -1.0110   -2.2585 O   0  0  0  0  0  0  0  0  0  0  0  0
   -3.1198    1.1759   -1.1651 O   0  0  0  0  0  0  0  0  0  0  0  0
   -0.7713   -0.1094   -1.0384 C   0  0  0  0  0  0  0  0  0  0  0  0
   -0.0216   -1.2122   -0.6115 C   0  0  0  0  0  0  0  0  0  0  0  0
    1.3743   -1.1464   -0.5850 C   0  0  0  0  0  0  0  0  0  0  0  0
    2.0390    0.0182   -0.9870 C   0  0  0  0  0  0  0  0  0  0  0  0
    3.4408    0.0350   -0.9415 O   0  0  0  0  0  0  0  0  0  0  0  0
    4.2442    1.1484   -1.3191 C   0  0  0  0  0  0  0  0  0  0  0  0
    5.6552    0.8060   -1.1408 C   0  0  0  0  0  0  0  0  0  0  0  0
    6.8179    0.5237   -0.9938 C   0  0  0  0  0  0  0  0  0  0  0  0
    8.2288    0.1806   -0.8152 C   0  0  0  0  0  0  0  0  0  0  0  0
    1.2835    1.1248   -1.4208 C   0  0  0  0  0  0  0  0  0  0  0  0
   -0.1129    1.0582   -1.4466 C   0  0  0  0  0  0  0  0  0  0  0  0
   -5.2203    0.8931    1.2179 H   0  0  0  0  0  0  0  0  0  0  0  0
   -7.3163   -0.5890    1.2681 H   0  0  0  0  0  0  0  0  0  0  0  0
   -3.7984    0.8259    3.1165 H   0  0  0  0  0  0  0  0  0  0  0  0
   -3.8618   -0.9895    3.2124 H   0  0  0  0  0  0  0  0  0  0  0  0
   -1.8259   -0.8016    2.0863 H   0  0  0  0  0  0  0  0  0  0  0  0
   -2.2781    0.7790    1.3464 H   0  0  0  0  0  0  0  0  0  0  0  0
   -4.8724   -2.0736    0.6212 H   0  0  0  0  0  0  0  0  0  0  0  0
   -5.0479   -0.6928   -0.5091 H   0  0  0  0  0  0  0  0  0  0  0  0
   -0.5179   -2.1218   -0.2976 H   0  0  0  0  0  0  0  0  0  0  0  0
    1.9431   -2.0048   -0.2505 H   0  0  0  0  0  0  0  0  0  0  0  0
    4.0040    2.0243   -0.6800 H   0  0  0  0  0  0  0  0  0  0  0  0
    4.0680    1.3994   -2.3865 H   0  0  0  0  0  0  0  0  0  0  0  0
    8.7314    0.9761   -0.2275 H   0  0  0  0  0  0  0  0  0  0  0  0
    8.3092   -0.7850   -0.2749 H   0  0  0  0  0  0  0  0  0  0  0  0
    8.7161    0.0905   -1.8078 H   0  0  0  0  0  0  0  0  0  0  0  0
    1.7649    2.0391   -1.7400 H   0  0  0  0  0  0  0  0  0  0  0  0
   -0.6771    1.9174   -1.7854 H   0  0  0  0  0  0  0  0  0  0  0  0
  1  2  1  0
  1  3  1  0
  3  4  1  0
  4  5  1  0
  5  6  1  0
  5  7  1  0
  7  8  2  0
  7  9  2  0
  7 10  1  0
 10 11  2  0
 11 12  1  0
 12 13  2  0
 13 14  1  0
 14 15  1  0
 15 16  1  0
 16 17  3  0
 17 18  1  0
 13 19  1  0
 19 20  2  0
  6  1  1  0
 20 10  1  0
  1 21  1  6
  2 22  1  0
  3 23  1  0
  3 24  1  0
  4 25  1  0
  4 26  1  0
  6 27  1  0
  6 28  1  0
 11 29  1  0
 12 30  1  0
 15 31  1  0
 15 32  1  0
 18 33  1  0
 18 34  1  0
 18 35  1  0
 19 36  1  0
 20 37  1  0
M  END
$$$$
