
     RDKit          3D

 53 56  0  0  0  0  0  0  0  0999 V2000
   -2.7692    0.3621   -0.7515 C   0  0  2  0  0  0  0  0  0  0  0  0
   -3.7111    1.4625   -1.2433 C   0  0  0  0  0  0  0  0  0  0  0  0
   -5.1071    0.8484   -1.0364 C   0  0  0  0  0  0  0  0  0  0  0  0
   -4.8795   -0.2230   -0.0131 C   0  0  0  0  0  0  0  0  0  0  0  0
   -5.7655   -0.9440    0.4192 O   0  0  0  0  0  0  0  0  0  0  0  0
   -3.4666   -0.2527    0.4677 C   0  0  2  0  0  0  0  0  0  0  0  0
   -3.4094    0.6051    1.7626 C   0  0  0  0  0  0  0  0  0  0  0  0
   -2.8517   -1.6455    0.6975 C   0  0  0  0  0  0  0  0  0  0  0  0
   -1.3243   -1.5341    0.9412 C   0  0  0  0  0  0  0  0  0  0  0  0
   -0.5652   -0.6703   -0.1278 C   0  0  1  0  0  0  0  0  0  0  0  0
   -1.2886    0.6732   -0.4726 C   0  0  1  0  0  0  0  0  0  0  0  0
   -0.6238    1.3456   -1.6915 C   0  0  0  0  0  0  0  0  0  0  0  0
    0.8750    1.1775   -1.7641 C   0  0  0  0  0  0  0  0  0  0  0  0
    1.5817    0.3103   -1.0035 C   0  0  0  0  0  0  0  0  0  0  0  0
    2.9626   -0.0902   -1.4873 C   0  0  0  0  0  0  0  0  0  0  0  0
    3.8839   -0.5564   -0.3538 C   0  0  2  0  0  0  0  0  0  0  0  0
    3.2229   -1.6228    0.5578 C   0  0  0  0  0  0  0  0  0  0  0  0
    1.6924   -1.7548    0.4111 C   0  0  0  0  0  0  0  0  0  0  0  0
    0.9513   -0.4043    0.1959 C   0  0  2  0  0  0  0  0  0  0  0  0
    1.1226    0.4909    1.4555 C   0  0  0  0  0  0  0  0  0  0  0  0
    4.2625    0.5750    0.4076 O   0  0  0  0  0  0  0  0  0  0  0  0
    5.8848    0.4414    0.8869 S   0  0  0  0  0  6  0  0  0  0  0  0
    6.8813    0.5048   -0.4667 O   0  0  0  0  0  0  0  0  0  0  0  0
    6.1086   -0.8495    1.6254 O   0  0  0  0  0  0  0  0  0  0  0  0
    6.2144    1.5917    1.7956 O   0  0  0  0  0  0  0  0  0  0  0  0
   -2.7735   -0.3947   -1.5770 H   0  0  0  0  0  0  0  0  0  0  0  0
   -3.5905    2.3836   -0.6329 H   0  0  0  0  0  0  0  0  0  0  0  0
   -3.5343    1.7040   -2.3138 H   0  0  0  0  0  0  0  0  0  0  0  0
   -5.4775    0.3921   -1.9796 H   0  0  0  0  0  0  0  0  0  0  0  0
   -5.8274    1.6073   -0.6634 H   0  0  0  0  0  0  0  0  0  0  0  0
   -2.3835    0.7196    2.1616 H   0  0  0  0  0  0  0  0  0  0  0  0
   -3.8173    1.6242    1.5943 H   0  0  0  0  0  0  0  0  0  0  0  0
   -4.0197    0.1253    2.5578 H   0  0  0  0  0  0  0  0  0  0  0  0
   -3.3317   -2.1359    1.5724 H   0  0  0  0  0  0  0  0  0  0  0  0
   -3.0339   -2.2963   -0.1866 H   0  0  0  0  0  0  0  0  0  0  0  0
   -0.9204   -2.5682    0.9288 H   0  0  0  0  0  0  0  0  0  0  0  0
   -1.1569   -1.1467    1.9630 H   0  0  0  0  0  0  0  0  0  0  0  0
   -0.5879   -1.2864   -1.0579 H   0  0  0  0  0  0  0  0  0  0  0  0
   -1.2327    1.3863    0.3711 H   0  0  0  0  0  0  0  0  0  0  0  0
   -0.8636    2.4305   -1.6922 H   0  0  0  0  0  0  0  0  0  0  0  0
   -1.0363    0.9136   -2.6292 H   0  0  0  0  0  0  0  0  0  0  0  0
    1.3604    1.6508   -2.6136 H   0  0  0  0  0  0  0  0  0  0  0  0
    3.4566    0.7583   -2.0116 H   0  0  0  0  0  0  0  0  0  0  0  0
    2.8458   -0.9131   -2.2260 H   0  0  0  0  0  0  0  0  0  0  0  0
    4.7592   -1.0280   -0.8612 H   0  0  0  0  0  0  0  0  0  0  0  0
    3.4627   -1.4085    1.6220 H   0  0  0  0  0  0  0  0  0  0  0  0
    3.6745   -2.6154    0.3391 H   0  0  0  0  0  0  0  0  0  0  0  0
    1.4841   -2.4256   -0.4524 H   0  0  0  0  0  0  0  0  0  0  0  0
    1.3115   -2.2653    1.3214 H   0  0  0  0  0  0  0  0  0  0  0  0
    2.1866    0.6169    1.7267 H   0  0  0  0  0  0  0  0  0  0  0  0
    0.7343    1.5157    1.2929 H   0  0  0  0  0  0  0  0  0  0  0  0
    0.6271    0.0545    2.3437 H   0  0  0  0  0  0  0  0  0  0  0  0
    7.8024    0.4310   -0.1098 H   0  0  0  0  0  0  0  0  0  0  0  0
  1  2  1  0
  2  3  1  0
  3  4  1  0
  4  5  2  0
  4  6  1  0
  6  7  1  1
  6  8  1  0
  8  9  1  0
  9 10  1  0
 10 11  1  0
 11 12  1  0
 12 13  1  0
 13 14  2  0
 14 15  1  0
 15 16  1  0
 16 17  1  0
 17 18  1  0
 18 19  1  0
 19 20  1  1
 16 21  1  0
 21 22  1  0
 22 23  1  0
 22 24  2  0
 22 25  2  0
  6  1  1  0
 19 10  1  0
 11  1  1  0
 19 14  1  0
  1 26  1  6
  2 27  1  0
  2 28  1  0
  3 29  1  0
  3 30  1  0
  7 31  1  0
  7 32  1  0
  7 33  1  0
  8 34  1  0
  8 35  1  0
  9 36  1  0
  9 37  1  0
 10 38  1  6
 11 39  1  1
 12 40  1  0
 12 41  1  0
 13 42  1  0
 15 43  1  0
 15 44  1  0
 16 45  1  6
 17 46  1  0
 17 47  1  0
 18 48  1  0
 18 49  1  0
 20 50  1  0
 20 51  1  0
 20 52  1  0
 23 53  1  0
M  END
$$$$
