
     RDKit          3D

 65 66  0  0  0  0  0  0  0  0999 V2000
   -2.0155   -1.5198    1.9463 O   0  0  0  0  0  0  0  0  0  0  0  0
   -2.6891   -0.3679    2.3733 C   0  0  0  0  0  0  0  0  0  0  0  0
   -2.6573    0.6833    1.2937 C   0  0  0  0  0  0  0  0  0  0  0  0
   -1.5931    1.6003    1.2122 C   0  0  0  0  0  0  0  0  0  0  0  0
   -0.5610    1.5647    2.1495 O   0  0  0  0  0  0  0  0  0  0  0  0
   -1.5687    2.5487    0.1827 C   0  0  0  0  0  0  0  0  0  0  0  0
   -2.5852    2.5809   -0.7731 C   0  0  0  0  0  0  0  0  0  0  0  0
   -3.6411    1.6539   -0.7232 C   0  0  0  0  0  0  0  0  0  0  0  0
   -3.6647    0.7049    0.3141 C   0  0  0  0  0  0  0  0  0  0  0  0
   -4.7123    1.6339   -1.8008 C   0  0  1  0  0  0  0  0  0  0  0  0
   -5.3597    2.8808   -1.8731 O   0  0  0  0  0  0  0  0  0  0  0  0
   -4.1372    1.2221   -3.1745 C   0  0  0  0  0  0  0  0  0  0  0  0
   -3.7651   -0.2016   -3.1837 N   0  0  0  0  0  0  0  0  0  0  0  0
   -3.0159   -0.5890   -4.3912 C   0  0  0  0  0  0  0  0  0  0  0  0
   -1.6006    0.0348   -4.5088 C   0  0  0  0  0  0  0  0  0  0  0  0
   -0.7795    0.0874   -3.2073 C   0  0  0  0  0  0  0  0  0  0  0  0
   -0.4307   -1.3038   -2.6453 C   0  0  0  0  0  0  0  0  0  0  0  0
   -0.1957   -1.2794   -1.1265 C   0  0  0  0  0  0  0  0  0  0  0  0
    0.9744   -0.3842   -0.6955 C   0  0  0  0  0  0  0  0  0  0  0  0
    2.1786   -0.7792   -1.3290 O   0  0  0  0  0  0  0  0  0  0  0  0
    2.9052   -1.6929   -0.5285 C   0  0  0  0  0  0  0  0  0  0  0  0
    3.8663   -0.9435    0.4004 C   0  0  0  0  0  0  0  0  0  0  0  0
    4.6800   -1.8540    1.1169 O   0  0  0  0  0  0  0  0  0  0  0  0
    4.0930   -2.2024    2.3577 C   0  0  0  0  0  0  0  0  0  0  0  0
    4.3838   -1.1510    3.4109 C   0  0  0  0  0  0  0  0  0  0  0  0
    3.3458   -0.3739    3.9829 C   0  0  0  0  0  0  0  0  0  0  0  0
    1.6528   -0.5808    3.5400 Cl  0  0  0  0  0  0  0  0  0  0  0  0
    3.6478    0.6015    4.9400 C   0  0  0  0  0  0  0  0  0  0  0  0
    4.9660    0.8167    5.3390 C   0  0  0  0  0  0  0  0  0  0  0  0
    5.9958    0.0579    4.7857 C   0  0  0  0  0  0  0  0  0  0  0  0
    5.7165   -0.9217    3.8269 C   0  0  0  0  0  0  0  0  0  0  0  0
    7.0661   -1.8456    3.1718 Cl  0  0  0  0  0  0  0  0  0  0  0  0
   -1.0447   -1.3255    2.0203 H   0  0  0  0  0  0  0  0  0  0  0  0
   -2.2439    0.0168    3.3188 H   0  0  0  0  0  0  0  0  0  0  0  0
   -3.7408   -0.6383    2.6075 H   0  0  0  0  0  0  0  0  0  0  0  0
    0.2215    2.2069    2.1035 H   0  0  0  0  0  0  0  0  0  0  0  0
   -0.7532    3.2576    0.1159 H   0  0  0  0  0  0  0  0  0  0  0  0
   -2.5301    3.3144   -1.5666 H   0  0  0  0  0  0  0  0  0  0  0  0
   -4.4625   -0.0270    0.3551 H   0  0  0  0  0  0  0  0  0  0  0  0
   -5.4925    0.8873   -1.5339 H   0  0  0  0  0  0  0  0  0  0  0  0
   -4.7430    3.5259   -2.3072 H   0  0  0  0  0  0  0  0  0  0  0  0
   -4.9158    1.3903   -3.9502 H   0  0  0  0  0  0  0  0  0  0  0  0
   -3.2711    1.8713   -3.4204 H   0  0  0  0  0  0  0  0  0  0  0  0
   -3.2282   -0.4666   -2.3280 H   0  0  0  0  0  0  0  0  0  0  0  0
   -2.9245   -1.6957   -4.4050 H   0  0  0  0  0  0  0  0  0  0  0  0
   -3.6044   -0.3222   -5.2963 H   0  0  0  0  0  0  0  0  0  0  0  0
   -1.0267   -0.5341   -5.2723 H   0  0  0  0  0  0  0  0  0  0  0  0
   -1.6962    1.0697   -4.9016 H   0  0  0  0  0  0  0  0  0  0  0  0
    0.1701    0.6250   -3.4203 H   0  0  0  0  0  0  0  0  0  0  0  0
   -1.3136    0.7000   -2.4542 H   0  0  0  0  0  0  0  0  0  0  0  0
    0.4676   -1.7020   -3.1650 H   0  0  0  0  0  0  0  0  0  0  0  0
   -1.2576   -2.0187   -2.8335 H   0  0  0  0  0  0  0  0  0  0  0  0
   -1.1216   -0.9282   -0.6241 H   0  0  0  0  0  0  0  0  0  0  0  0
   -0.0098   -2.3174   -0.7775 H   0  0  0  0  0  0  0  0  0  0  0  0
    1.0430   -0.3785    0.4171 H   0  0  0  0  0  0  0  0  0  0  0  0
    0.7592    0.6661   -0.9820 H   0  0  0  0  0  0  0  0  0  0  0  0
    2.2463   -2.3816    0.0478 H   0  0  0  0  0  0  0  0  0  0  0  0
    3.5071   -2.3348   -1.2061 H   0  0  0  0  0  0  0  0  0  0  0  0
    3.3131   -0.2390    1.0613 H   0  0  0  0  0  0  0  0  0  0  0  0
    4.5331   -0.3149   -0.2269 H   0  0  0  0  0  0  0  0  0  0  0  0
    4.5460   -3.1590    2.6929 H   0  0  0  0  0  0  0  0  0  0  0  0
    3.0114   -2.4321    2.2565 H   0  0  0  0  0  0  0  0  0  0  0  0
    2.8565    1.1970    5.3778 H   0  0  0  0  0  0  0  0  0  0  0  0
    5.1899    1.5733    6.0799 H   0  0  0  0  0  0  0  0  0  0  0  0
    7.0159    0.2326    5.1037 H   0  0  0  0  0  0  0  0  0  0  0  0
  1  2  1  0
  2  3  1  0
  3  4  2  0
  4  5  1  0
  4  6  1  0
  6  7  2  0
  7  8  1  0
  8  9  2  0
  8 10  1  0
 10 11  1  0
 10 12  1  0
 12 13  1  0
 13 14  1  0
 14 15  1  0
 15 16  1  0
 16 17  1  0
 17 18  1  0
 18 19  1  0
 19 20  1  0
 20 21  1  0
 21 22  1  0
 22 23  1  0
 23 24  1  0
 24 25  1  0
 25 26  2  0
 26 27  1  0
 26 28  1  0
 28 29  2  0
 29 30  1  0
 30 31  2  0
 31 32  1  0
  9  3  1  0
 31 25  1  0
  1 33  1  0
  2 34  1  0
  2 35  1  0
  5 36  1  0
  6 37  1  0
  7 38  1  0
  9 39  1  0
 10 40  1  1
 11 41  1  0
 12 42  1  0
 12 43  1  0
 13 44  1  0
 14 45  1  0
 14 46  1  0
 15 47  1  0
 15 48  1  0
 16 49  1  0
 16 50  1  0
 17 51  1  0
 17 52  1  0
 18 53  1  0
 18 54  1  0
 19 55  1  0
 19 56  1  0
 21 57  1  0
 21 58  1  0
 22 59  1  0
 22 60  1  0
 24 61  1  0
 24 62  1  0
 28 63  1  0
 29 64  1  0
 30 65  1  0
M  END
$$$$
