
     RDKit          3D

 43 46  0  0  0  0  0  0  0  0999 V2000
   -2.1960    4.7380   -1.2101 F   0  0  0  0  0  0  0  0  0  0  0  0
   -1.8985    3.4681   -0.8389 C   0  0  0  0  0  0  0  0  0  0  0  0
   -2.9096    2.5085   -0.7730 C   0  0  0  0  0  0  0  0  0  0  0  0
   -2.6295    1.1783   -0.3816 C   0  0  0  0  0  0  0  0  0  0  0  0
   -1.2841    0.8532   -0.0779 C   0  0  0  0  0  0  0  0  0  0  0  0
   -0.2600    1.8148   -0.1619 C   0  0  0  0  0  0  0  0  0  0  0  0
   -0.5842    3.1273   -0.5301 C   0  0  0  0  0  0  0  0  0  0  0  0
    1.1466    1.4721    0.1577 C   0  0  0  0  0  0  0  0  0  0  0  0
    1.8821    2.3500    0.6863 O   0  0  0  0  0  0  0  0  0  0  0  0
    1.6748    0.1609   -0.1188 N   0  0  0  0  0  0  0  0  0  0  0  0
    3.0448   -0.2136    0.1018 C   0  0  0  0  0  0  0  0  0  0  0  0
    4.1117    0.6776   -0.1957 C   0  0  0  0  0  0  0  0  0  0  0  0
    5.4492    0.2877    0.0003 C   0  0  0  0  0  0  0  0  0  0  0  0
    5.6900   -0.9978    0.4780 C   0  0  0  0  0  0  0  0  0  0  0  0
    6.8806   -1.5675    0.7261 N   0  0  0  0  0  0  0  0  0  0  0  0
    6.6075   -2.8196    1.1596 C   0  0  0  0  0  0  0  0  0  0  0  0
    5.2348   -3.0451    1.1849 C   0  0  0  0  0  0  0  0  0  0  0  0
    4.6689   -1.8682    0.7456 C   0  0  0  0  0  0  0  0  0  0  0  0
    3.3341   -1.5164    0.5624 C   0  0  0  0  0  0  0  0  0  0  0  0
   -3.6905    0.1751   -0.2984 N   0  0  0  0  0  0  0  0  0  0  0  0
   -5.0654    0.5415   -0.7015 C   0  0  0  0  0  0  0  0  0  0  0  0
   -6.0850   -0.5823   -0.4988 C   0  0  0  0  0  0  0  0  0  0  0  0
   -5.5257   -1.8336   -0.8177 O   0  0  0  0  0  0  0  0  0  0  0  0
   -4.5592   -2.1471    0.1559 C   0  0  0  0  0  0  0  0  0  0  0  0
   -3.3443   -1.2217    0.0429 C   0  0  0  0  0  0  0  0  0  0  0  0
   -3.9083    2.8267   -1.0327 H   0  0  0  0  0  0  0  0  0  0  0  0
   -1.0253   -0.1399    0.2509 H   0  0  0  0  0  0  0  0  0  0  0  0
    0.1853    3.8870   -0.5954 H   0  0  0  0  0  0  0  0  0  0  0  0
    1.0293   -0.5884   -0.4523 H   0  0  0  0  0  0  0  0  0  0  0  0
    3.9129    1.6589   -0.6045 H   0  0  0  0  0  0  0  0  0  0  0  0
    6.2648    0.9626   -0.2251 H   0  0  0  0  0  0  0  0  0  0  0  0
    7.8247   -1.1372    0.6077 H   0  0  0  0  0  0  0  0  0  0  0  0
    7.3651   -3.5383    1.4428 H   0  0  0  0  0  0  0  0  0  0  0  0
    4.7239   -3.9509    1.4838 H   0  0  0  0  0  0  0  0  0  0  0  0
    2.5421   -2.2229    0.7776 H   0  0  0  0  0  0  0  0  0  0  0  0
   -5.4115    1.4125   -0.1042 H   0  0  0  0  0  0  0  0  0  0  0  0
   -5.0600    0.8234   -1.7772 H   0  0  0  0  0  0  0  0  0  0  0  0
   -6.4912   -0.5632    0.5398 H   0  0  0  0  0  0  0  0  0  0  0  0
   -6.9510   -0.4029   -1.1708 H   0  0  0  0  0  0  0  0  0  0  0  0
   -4.2252   -3.1941   -0.0049 H   0  0  0  0  0  0  0  0  0  0  0  0
   -4.9849   -2.1141    1.1862 H   0  0  0  0  0  0  0  0  0  0  0  0
   -2.6652   -1.6240   -0.7405 H   0  0  0  0  0  0  0  0  0  0  0  0
   -2.8190   -1.2489    1.0219 H   0  0  0  0  0  0  0  0  0  0  0  0
  1  2  1  0
  2  3  2  0
  3  4  1  0
  4  5  2  0
  5  6  1  0
  6  7  2  0
  6  8  1  0
  8  9  2  0
  8 10  1  0
 10 11  1  0
 11 12  2  0
 12 13  1  0
 13 14  2  0
 14 15  1  0
 15 16  1  0
 16 17  2  0
 17 18  1  0
 18 19  2  0
  4 20  1  0
 20 21  1  0
 21 22  1  0
 22 23  1  0
 23 24  1  0
 24 25  1  0
  7  2  1  0
 19 11  1  0
 25 20  1  0
 18 14  1  0
  3 26  1  0
  5 27  1  0
  7 28  1  0
 10 29  1  0
 12 30  1  0
 13 31  1  0
 15 32  1  0
 16 33  1  0
 17 34  1  0
 19 35  1  0
 21 36  1  0
 21 37  1  0
 22 38  1  0
 22 39  1  0
 24 40  1  0
 24 41  1  0
 25 42  1  0
 25 43  1  0
M  END
$$$$
