
     RDKit          3D

 33 34  0  0  0  0  0  0  0  0999 V2000
    1.1706    2.2085   -1.7952 O   0  0  0  0  0  0  0  0  0  0  0  0
    0.5210    1.4992   -0.4036 P   0  0  1  0  0  5  0  0  0  0  0  0
    0.6623    2.4589    0.7571 O   0  0  0  0  0  0  0  0  0  0  0  0
   -1.1290    1.1675   -0.6773 O   0  0  0  0  0  0  0  0  0  0  0  0
   -1.6229    0.4370    0.4197 C   0  0  0  0  0  0  0  0  0  0  0  0
   -3.0848    0.1722    0.2036 C   0  0  0  0  0  0  0  0  0  0  0  0
   -4.0451    1.1014    0.6376 C   0  0  0  0  0  0  0  0  0  0  0  0
   -5.4043    0.8713    0.4022 C   0  0  0  0  0  0  0  0  0  0  0  0
   -5.8126   -0.2795   -0.2778 C   0  0  0  0  0  0  0  0  0  0  0  0
   -4.8620   -1.1997   -0.7282 C   0  0  0  0  0  0  0  0  0  0  0  0
   -3.5018   -0.9734   -0.4949 C   0  0  0  0  0  0  0  0  0  0  0  0
    1.3659    0.0366   -0.0592 O   0  0  0  0  0  0  0  0  0  0  0  0
    2.7440   -0.0621    0.1966 C   0  0  0  0  0  0  0  0  0  0  0  0
    3.2913   -1.3324    0.4826 C   0  0  0  0  0  0  0  0  0  0  0  0
    2.4232   -2.5298    0.5129 C   0  0  0  0  0  0  0  0  0  0  0  0
    2.8968   -3.6697    0.7651 O   0  0  0  0  0  0  0  0  0  0  0  0
    4.6694   -1.4529    0.7403 C   0  0  0  0  0  0  0  0  0  0  0  0
    5.4955   -0.3286    0.7152 C   0  0  0  0  0  0  0  0  0  0  0  0
    4.9587    0.9264    0.4336 C   0  0  0  0  0  0  0  0  0  0  0  0
    3.5936    1.0638    0.1755 C   0  0  0  0  0  0  0  0  0  0  0  0
    1.1147    1.5012   -2.4860 H   0  0  0  0  0  0  0  0  0  0  0  0
   -1.0916   -0.5368    0.5195 H   0  0  0  0  0  0  0  0  0  0  0  0
   -1.4954    1.0056    1.3696 H   0  0  0  0  0  0  0  0  0  0  0  0
   -3.7416    2.0022    1.1566 H   0  0  0  0  0  0  0  0  0  0  0  0
   -6.1408    1.5872    0.7434 H   0  0  0  0  0  0  0  0  0  0  0  0
   -6.8649   -0.4553   -0.4605 H   0  0  0  0  0  0  0  0  0  0  0  0
   -5.1788   -2.0866   -1.2616 H   0  0  0  0  0  0  0  0  0  0  0  0
   -2.7749   -1.6895   -0.8582 H   0  0  0  0  0  0  0  0  0  0  0  0
    1.3623   -2.4433    0.3180 H   0  0  0  0  0  0  0  0  0  0  0  0
    5.1095   -2.4173    0.9618 H   0  0  0  0  0  0  0  0  0  0  0  0
    6.5544   -0.4309    0.9147 H   0  0  0  0  0  0  0  0  0  0  0  0
    5.6025    1.7965    0.4149 H   0  0  0  0  0  0  0  0  0  0  0  0
    3.2149    2.0520   -0.0391 H   0  0  0  0  0  0  0  0  0  0  0  0
  2  1  1  6
  2  3  2  0
  2  4  1  0
  4  5  1  0
  5  6  1  0
  6  7  2  0
  7  8  1  0
  8  9  2  0
  9 10  1  0
 10 11  2  0
  2 12  1  0
 12 13  1  0
 13 14  2  0
 14 15  1  0
 15 16  2  0
 14 17  1  0
 17 18  2  0
 18 19  1  0
 19 20  2  0
 11  6  1  0
 20 13  1  0
  1 21  1  0
  5 22  1  0
  5 23  1  0
  7 24  1  0
  8 25  1  0
  9 26  1  0
 10 27  1  0
 11 28  1  0
 15 29  1  0
 17 30  1  0
 18 31  1  0
 19 32  1  0
 20 33  1  0
M  END
$$$$
