
     RDKit          3D

 38 38  0  0  0  0  0  0  0  0999 V2000
   -1.9402   -1.1888   -1.2574 C   0  0  1  0  0  0  0  0  0  0  0  0
   -1.1955   -1.9543   -2.1733 O   0  0  0  0  0  0  0  0  0  0  0  0
   -2.3113   -2.0112   -0.0452 C   0  0  0  0  0  0  0  0  0  0  0  0
   -1.7162   -1.8269    1.1445 C   0  0  0  0  0  0  0  0  0  0  0  0
   -0.7410   -0.8325    1.3047 O   0  0  0  0  0  0  0  0  0  0  0  0
   -0.1362   -0.1412    0.2117 C   0  0  1  0  0  0  0  0  0  0  0  0
    0.9334   -0.9288   -0.2809 O   0  0  0  0  0  0  0  0  0  0  0  0
    1.8777   -0.1541   -1.0028 C   0  0  0  0  0  0  0  0  0  0  0  0
    3.2559   -0.2446   -0.3273 C   0  0  0  0  0  0  0  0  0  0  0  0
    4.3259    0.4236   -1.1989 C   0  0  0  0  0  0  0  0  0  0  0  0
    3.2305    0.3952    1.0668 C   0  0  0  0  0  0  0  0  0  0  0  0
   -1.1941    0.1192   -0.8873 C   0  0  2  0  0  0  0  0  0  0  0  0
   -2.1478    1.1320   -0.4167 N   0  0  0  0  0  0  0  0  0  0  0  0
   -1.8300    2.5305   -0.3905 C   0  0  0  0  0  0  0  0  0  0  0  0
   -2.8308    3.5121    0.1255 C   0  0  0  0  0  0  0  0  0  0  0  0
   -0.7204    2.9426   -0.8254 O   0  0  0  0  0  0  0  0  0  0  0  0
   -2.0841   -2.6363    2.3200 C   0  0  0  0  0  0  0  0  0  0  0  0
   -1.4492   -2.4026    3.5357 O   0  0  0  0  0  0  0  0  0  0  0  0
   -2.9642   -3.5361    2.2398 O   0  0  0  0  0  0  0  0  0  0  0  0
   -2.8864   -0.9113   -1.7706 H   0  0  0  0  0  0  0  0  0  0  0  0
   -0.4711   -2.4170   -1.6781 H   0  0  0  0  0  0  0  0  0  0  0  0
   -3.0511   -2.7920   -0.1743 H   0  0  0  0  0  0  0  0  0  0  0  0
    0.2396    0.8247    0.6215 H   0  0  0  0  0  0  0  0  0  0  0  0
    1.9506   -0.5874   -2.0235 H   0  0  0  0  0  0  0  0  0  0  0  0
    1.5968    0.9181   -1.1389 H   0  0  0  0  0  0  0  0  0  0  0  0
    3.5248   -1.3185   -0.2147 H   0  0  0  0  0  0  0  0  0  0  0  0
    4.1000    1.5027   -1.3395 H   0  0  0  0  0  0  0  0  0  0  0  0
    4.3706   -0.0664   -2.1949 H   0  0  0  0  0  0  0  0  0  0  0  0
    5.3248    0.3253   -0.7227 H   0  0  0  0  0  0  0  0  0  0  0  0
    2.9379    1.4654    1.0019 H   0  0  0  0  0  0  0  0  0  0  0  0
    4.2337    0.3257    1.5390 H   0  0  0  0  0  0  0  0  0  0  0  0
    2.5087   -0.1361    1.7226 H   0  0  0  0  0  0  0  0  0  0  0  0
   -0.7028    0.5032   -1.8084 H   0  0  0  0  0  0  0  0  0  0  0  0
   -3.0963    0.8365   -0.0897 H   0  0  0  0  0  0  0  0  0  0  0  0
   -3.6777    3.5858   -0.5878 H   0  0  0  0  0  0  0  0  0  0  0  0
   -3.2116    3.1740    1.1119 H   0  0  0  0  0  0  0  0  0  0  0  0
   -2.3685    4.5150    0.2453 H   0  0  0  0  0  0  0  0  0  0  0  0
   -1.6844   -2.9456    4.3579 H   0  0  0  0  0  0  0  0  0  0  0  0
  1  2  1  0
  1  3  1  0
  3  4  2  0
  4  5  1  0
  5  6  1  0
  6  7  1  0
  7  8  1  0
  8  9  1  0
  9 10  1  0
  9 11  1  0
  6 12  1  0
 12 13  1  0
 13 14  1  0
 14 15  1  0
 14 16  2  0
  4 17  1  0
 17 18  1  0
 17 19  2  0
 12  1  1  0
  1 20  1  6
  2 21  1  0
  3 22  1  0
  6 23  1  1
  8 24  1  0
  8 25  1  0
  9 26  1  0
 10 27  1  0
 10 28  1  0
 10 29  1  0
 11 30  1  0
 11 31  1  0
 11 32  1  0
 12 33  1  6
 13 34  1  0
 15 35  1  0
 15 36  1  0
 15 37  1  0
 18 38  1  0
M  END
$$$$
