
     RDKit          3D

 45 47  0  0  0  0  0  0  0  0999 V2000
   -0.5845   -2.1595   -0.6466 C   0  0  0  0  0  0  0  0  0  0  0  0
   -0.7747   -0.9795   -1.6162 C   0  0  0  0  0  0  0  0  0  0  0  0
   -2.2376   -0.8567   -2.0957 C   0  0  0  0  0  0  0  0  0  0  0  0
   -3.2167   -0.5624   -0.9846 C   0  0  0  0  0  0  0  0  0  0  0  0
   -3.8483   -1.6250   -0.2868 C   0  0  0  0  0  0  0  0  0  0  0  0
   -4.7476   -1.3576    0.7612 C   0  0  0  0  0  0  0  0  0  0  0  0
   -4.9926   -0.0266    1.0830 C   0  0  0  0  0  0  0  0  0  0  0  0
   -5.8235    0.4833    2.0618 O   0  0  0  0  0  0  0  0  0  0  0  0
   -5.7425    1.9146    2.0099 C   0  0  0  0  0  0  0  0  0  0  0  0
   -4.8204    2.1982    0.9482 O   0  0  0  0  0  0  0  0  0  0  0  0
   -4.3952    0.9948    0.4196 C   0  0  0  0  0  0  0  0  0  0  0  0
   -3.5003    0.7745   -0.6231 C   0  0  0  0  0  0  0  0  0  0  0  0
   -0.3220    0.2952   -1.0246 N   0  0  0  0  0  0  0  0  0  0  0  0
    1.1484    0.4120   -0.9314 C   0  0  0  0  0  0  0  0  0  0  0  0
    1.6471    0.3587    0.5256 C   0  0  0  0  0  0  0  0  0  0  0  0
    1.1884    1.4893    1.2223 O   0  0  0  0  0  0  0  0  0  0  0  0
    3.1593    0.3036    0.5560 C   0  0  0  0  0  0  0  0  0  0  0  0
    3.8155   -0.9183    0.7771 C   0  0  0  0  0  0  0  0  0  0  0  0
    5.2115   -0.9810    0.7758 C   0  0  0  0  0  0  0  0  0  0  0  0
    5.9698    0.1739    0.5428 C   0  0  0  0  0  0  0  0  0  0  0  0
    7.3623    0.1156    0.5414 O   0  0  0  0  0  0  0  0  0  0  0  0
    5.3252    1.3947    0.3066 C   0  0  0  0  0  0  0  0  0  0  0  0
    6.0821    2.5405    0.0685 O   0  0  0  0  0  0  0  0  0  0  0  0
    3.9243    1.4573    0.3086 C   0  0  0  0  0  0  0  0  0  0  0  0
    0.4963   -2.3508   -0.4828 H   0  0  0  0  0  0  0  0  0  0  0  0
   -1.0604   -1.9490    0.3343 H   0  0  0  0  0  0  0  0  0  0  0  0
   -1.0289   -3.0836   -1.0734 H   0  0  0  0  0  0  0  0  0  0  0  0
   -0.1776   -1.1949   -2.5313 H   0  0  0  0  0  0  0  0  0  0  0  0
   -2.2967   -0.0511   -2.8604 H   0  0  0  0  0  0  0  0  0  0  0  0
   -2.5344   -1.7948   -2.6145 H   0  0  0  0  0  0  0  0  0  0  0  0
   -3.6401   -2.6535   -0.5535 H   0  0  0  0  0  0  0  0  0  0  0  0
   -5.2326   -2.1603    1.3008 H   0  0  0  0  0  0  0  0  0  0  0  0
   -6.7385    2.3465    1.7778 H   0  0  0  0  0  0  0  0  0  0  0  0
   -5.3536    2.3113    2.9711 H   0  0  0  0  0  0  0  0  0  0  0  0
   -3.0354    1.6091   -1.1325 H   0  0  0  0  0  0  0  0  0  0  0  0
   -0.7747    0.4377   -0.0913 H   0  0  0  0  0  0  0  0  0  0  0  0
    1.4443    1.3859   -1.3771 H   0  0  0  0  0  0  0  0  0  0  0  0
    1.6654   -0.3746   -1.5268 H   0  0  0  0  0  0  0  0  0  0  0  0
    1.2299   -0.5565    1.0058 H   0  0  0  0  0  0  0  0  0  0  0  0
    1.3244    1.3043    2.1885 H   0  0  0  0  0  0  0  0  0  0  0  0
    3.2471   -1.8240    0.9492 H   0  0  0  0  0  0  0  0  0  0  0  0
    5.7033   -1.9290    0.9526 H   0  0  0  0  0  0  0  0  0  0  0  0
    7.8565   -0.7532    0.7081 H   0  0  0  0  0  0  0  0  0  0  0  0
    5.6450    3.4379   -0.1063 H   0  0  0  0  0  0  0  0  0  0  0  0
    3.4328    2.4029    0.1155 H   0  0  0  0  0  0  0  0  0  0  0  0
  1  2  1  0
  2  3  1  0
  3  4  1  0
  4  5  2  0
  5  6  1  0
  6  7  2  0
  7  8  1  0
  8  9  1  0
  9 10  1  0
 10 11  1  0
 11 12  2  0
  2 13  1  0
 13 14  1  0
 14 15  1  0
 15 16  1  0
 15 17  1  0
 17 18  2  0
 18 19  1  0
 19 20  2  0
 20 21  1  0
 20 22  1  0
 22 23  1  0
 22 24  2  0
 12  4  1  0
 24 17  1  0
 11  7  1  0
  1 25  1  0
  1 26  1  0
  1 27  1  0
  2 28  1  0
  3 29  1  0
  3 30  1  0
  5 31  1  0
  6 32  1  0
  9 33  1  0
  9 34  1  0
 12 35  1  0
 13 36  1  0
 14 37  1  0
 14 38  1  0
 15 39  1  0
 16 40  1  0
 18 41  1  0
 19 42  1  0
 21 43  1  0
 23 44  1  0
 24 45  1  0
M  END
$$$$
