
     RDKit          3D

 50 53  0  0  0  0  0  0  0  0999 V2000
    1.0858   -0.5563   -0.5907 C   0  0  2  0  0  0  0  0  0  0  0  0
    1.2293    0.7048   -1.4664 C   0  0  0  0  0  0  0  0  0  0  0  0
    0.9013    1.9754   -0.7191 C   0  0  0  0  0  0  0  0  0  0  0  0
    1.9106    2.6833   -0.0445 C   0  0  0  0  0  0  0  0  0  0  0  0
    1.5984    3.8399    0.6765 C   0  0  0  0  0  0  0  0  0  0  0  0
    0.2787    4.2967    0.7315 C   0  0  0  0  0  0  0  0  0  0  0  0
   -0.7311    3.5983    0.0642 C   0  0  0  0  0  0  0  0  0  0  0  0
   -0.4231    2.4427   -0.6596 C   0  0  0  0  0  0  0  0  0  0  0  0
   -0.2760   -0.6635   -0.0499 N   0  0  0  0  0  0  0  0  0  0  0  0
   -1.3879   -1.0549   -0.8700 C   0  0  0  0  0  0  0  0  0  0  0  0
   -1.1835   -1.6445   -1.9659 O   0  0  0  0  0  0  0  0  0  0  0  0
   -2.7743   -0.7718   -0.4521 C   0  0  0  0  0  0  0  0  0  0  0  0
   -3.9115   -1.2773   -1.0815 C   0  0  0  0  0  0  0  0  0  0  0  0
   -4.9726   -0.7305   -0.3946 C   0  0  0  0  0  0  0  0  0  0  0  0
   -4.4573    0.0669    0.5928 C   0  0  0  0  0  0  0  0  0  0  0  0
   -3.1145    0.0531    0.5696 N   0  0  0  0  0  0  0  0  0  0  0  0
   -5.2810    0.7806    1.4619 C   0  0  0  0  0  0  0  0  0  0  0  0
   -6.6731    0.6551    1.2999 C   0  0  0  0  0  0  0  0  0  0  0  0
   -7.2046   -0.1698    0.2816 C   0  0  0  0  0  0  0  0  0  0  0  0
   -8.9421   -0.3134    0.0920 Cl  0  0  0  0  0  0  0  0  0  0  0  0
   -6.3455   -0.8749   -0.5831 C   0  0  0  0  0  0  0  0  0  0  0  0
    2.1233   -0.5794    0.5066 C   0  0  0  0  0  0  0  0  0  0  0  0
    1.8848   -0.0606    1.6303 O   0  0  0  0  0  0  0  0  0  0  0  0
    3.4158   -1.1269    0.2525 N   0  0  0  0  0  0  0  0  0  0  0  0
    4.6823   -1.2975    0.9858 C   0  0  0  0  0  0  0  0  0  0  0  0
    5.4374   -1.9339   -0.1441 C   0  0  0  0  0  0  0  0  0  0  0  0
    4.1334   -1.7630   -0.8669 C   0  0  0  0  0  0  0  0  0  0  0  0
    5.8332   -3.3647    0.0992 C   0  0  0  0  0  0  0  0  0  0  0  0
    6.3438   -3.7466    1.3365 O   0  0  0  0  0  0  0  0  0  0  0  0
    5.7789   -4.2037   -0.8398 O   0  0  0  0  0  0  0  0  0  0  0  0
    1.2778   -1.4424   -1.2347 H   0  0  0  0  0  0  0  0  0  0  0  0
    2.2646    0.7602   -1.8693 H   0  0  0  0  0  0  0  0  0  0  0  0
    0.5599    0.6131   -2.3494 H   0  0  0  0  0  0  0  0  0  0  0  0
    2.9360    2.3356   -0.0717 H   0  0  0  0  0  0  0  0  0  0  0  0
    2.3794    4.3803    1.1956 H   0  0  0  0  0  0  0  0  0  0  0  0
    0.0386    5.1909    1.2918 H   0  0  0  0  0  0  0  0  0  0  0  0
   -1.7533    3.9514    0.1089 H   0  0  0  0  0  0  0  0  0  0  0  0
   -1.2164    1.9113   -1.1700 H   0  0  0  0  0  0  0  0  0  0  0  0
   -0.4608   -0.3729    0.9354 H   0  0  0  0  0  0  0  0  0  0  0  0
   -3.9552   -1.9476   -1.9302 H   0  0  0  0  0  0  0  0  0  0  0  0
   -2.4804    0.5962    1.1962 H   0  0  0  0  0  0  0  0  0  0  0  0
   -4.8646    1.4116    2.2365 H   0  0  0  0  0  0  0  0  0  0  0  0
   -7.3378    1.1965    1.9607 H   0  0  0  0  0  0  0  0  0  0  0  0
   -6.7365   -1.5073   -1.3700 H   0  0  0  0  0  0  0  0  0  0  0  0
    4.5323   -1.9544    1.8718 H   0  0  0  0  0  0  0  0  0  0  0  0
    5.1062   -0.3090    1.2709 H   0  0  0  0  0  0  0  0  0  0  0  0
    6.2557   -1.2974   -0.5458 H   0  0  0  0  0  0  0  0  0  0  0  0
    4.2181   -1.0629   -1.7275 H   0  0  0  0  0  0  0  0  0  0  0  0
    3.6367   -2.7164   -1.1560 H   0  0  0  0  0  0  0  0  0  0  0  0
    6.6410   -4.7004    1.5042 H   0  0  0  0  0  0  0  0  0  0  0  0
  1  2  1  0
  2  3  1  0
  3  4  2  0
  4  5  1  0
  5  6  2  0
  6  7  1  0
  7  8  2  0
  1  9  1  0
  9 10  1  0
 10 11  2  0
 10 12  1  0
 12 13  2  0
 13 14  1  0
 14 15  2  0
 15 16  1  0
 15 17  1  0
 17 18  2  0
 18 19  1  0
 19 20  1  0
 19 21  2  0
  1 22  1  0
 22 23  2  0
 22 24  1  0
 24 25  1  0
 25 26  1  0
 26 27  1  0
 26 28  1  0
 28 29  1  0
 28 30  2  0
  8  3  1  0
 16 12  1  0
 27 24  1  0
 21 14  1  0
  1 31  1  6
  2 32  1  0
  2 33  1  0
  4 34  1  0
  5 35  1  0
  6 36  1  0
  7 37  1  0
  8 38  1  0
  9 39  1  0
 13 40  1  0
 16 41  1  0
 17 42  1  0
 18 43  1  0
 21 44  1  0
 25 45  1  0
 25 46  1  0
 26 47  1  0
 27 48  1  0
 27 49  1  0
 29 50  1  0
M  END
$$$$
