
     RDKit          3D

 15 13  0  0  0  0  0  0  0  0999 V2000
    0.0000    0.0000    0.0000 Na  0  0  0  0  0 15  0  0  0  0  0  0
   -1.2582    0.6958    1.5582 O   0  0  0  0  0  0  0  0  0  0  0  0
   -1.1098    0.8367    0.1709 C   0  0  0  0  0  0  0  0  0  0  0  0
   -0.5583   -0.4509   -0.4572 C   0  0  0  0  0  0  0  0  0  0  0  0
    0.8225   -0.8425    0.0885 C   0  0  0  0  0  0  0  0  0  0  0  0
    1.8803    0.1345   -0.3244 C   0  0  0  0  0  0  0  0  0  0  0  0
    2.3781    0.1133   -1.6211 O   0  0  0  0  0  1  0  0  0  0  0  0
    2.3014    0.9962    0.4915 O   0  0  0  0  0  0  0  0  0  0  0  0
   -2.0551    0.1212    1.7016 H   0  0  0  0  0  0  0  0  0  0  0  0
   -2.0901    1.0859   -0.2951 H   0  0  0  0  0  0  0  0  0  0  0  0
   -0.4231    1.6846   -0.0344 H   0  0  0  0  0  0  0  0  0  0  0  0
   -1.2702   -1.2808   -0.2564 H   0  0  0  0  0  0  0  0  0  0  0  0
   -0.5011   -0.3238   -1.5605 H   0  0  0  0  0  0  0  0  0  0  0  0
    1.0939   -1.8428   -0.3116 H   0  0  0  0  0  0  0  0  0  0  0  0
    0.7896   -0.9273    1.1965 H   0  0  0  0  0  0  0  0  0  0  0  0
  2  3  1  0
  3  4  1  0
  4  5  1  0
  5  6  1  0
  6  7  1  0
  6  8  2  0
  2  9  1  0
  3 10  1  0
  3 11  1  0
  4 12  1  0
  4 13  1  0
  5 14  1  0
  5 15  1  0
M  CHG  2   1   1   7  -1
M  END
$$$$
