
     RDKit          3D

 14 13  0  0  0  0  0  0  0  0999 V2000
   -2.0041    0.3668   -1.0917 O   0  0  0  0  0  0  0  0  0  0  0  0
   -1.0639   -0.4754   -0.4808 C   0  0  0  0  0  0  0  0  0  0  0  0
    0.0264    0.3463    0.2300 C   0  0  0  0  0  0  0  0  0  0  0  0
   -0.7217    1.3590    1.5536 S   0  0  0  0  0  0  0  0  0  0  0  0
    1.1033   -0.5588    0.8464 C   0  0  0  0  0  0  0  0  0  0  0  0
    2.1182   -1.3698   -0.4332 S   0  0  0  0  0  0  0  0  0  0  0  0
   -1.5658    0.7431   -1.8992 H   0  0  0  0  0  0  0  0  0  0  0  0
   -0.6138   -1.1474   -1.2455 H   0  0  0  0  0  0  0  0  0  0  0  0
   -1.5902   -1.1164    0.2585 H   0  0  0  0  0  0  0  0  0  0  0  0
    0.5080    1.0335   -0.4996 H   0  0  0  0  0  0  0  0  0  0  0  0
   -1.3057    2.2680    0.6508 H   0  0  0  0  0  0  0  0  0  0  0  0
    0.6332   -1.3379    1.4840 H   0  0  0  0  0  0  0  0  0  0  0  0
    1.7817    0.0464    1.4854 H   0  0  0  0  0  0  0  0  0  0  0  0
    2.6943   -0.1575   -0.8588 H   0  0  0  0  0  0  0  0  0  0  0  0
  1  2  1  0
  2  3  1  0
  3  4  1  0
  3  5  1  0
  5  6  1  0
  1  7  1  0
  2  8  1  0
  2  9  1  0
  3 10  1  0
  4 11  1  0
  5 12  1  0
  5 13  1  0
  6 14  1  0
M  END
$$$$
