
     RDKit          3D

 80 87  0  0  0  0  0  0  0  0999 V2000
   -3.4712   -1.9811   -0.7854 C   0  0  2  0  0  0  0  0  0  0  0  0
   -2.9618   -2.9127   -1.8881 C   0  0  0  0  0  0  0  0  0  0  0  0
   -4.1164   -3.0221   -2.8858 C   0  0  0  0  0  0  0  0  0  0  0  0
   -4.9865   -1.7882   -2.6626 C   0  0  0  0  0  0  0  0  0  0  0  0
   -4.5850   -1.2610   -1.3722 N   0  0  0  0  0  0  0  0  0  0  0  0
   -5.1265   -0.0659   -0.7886 C   0  0  0  0  0  0  0  0  0  0  0  0
   -6.2327    0.3803   -1.1958 O   0  0  0  0  0  0  0  0  0  0  0  0
   -4.3909    0.6400    0.3353 C   0  0  2  0  0  0  0  0  0  0  0  0
   -4.1202    2.1228    0.0080 C   0  0  0  0  0  0  0  0  0  0  0  0
   -5.3710    2.9643    0.0598 C   0  0  0  0  0  0  0  0  0  0  0  0
   -5.9642    3.4367   -1.1237 C   0  0  0  0  0  0  0  0  0  0  0  0
   -7.1282    4.2096   -1.0683 C   0  0  0  0  0  0  0  0  0  0  0  0
   -7.7068    4.5177    0.1660 C   0  0  0  0  0  0  0  0  0  0  0  0
   -7.1220    4.0538    1.3474 C   0  0  0  0  0  0  0  0  0  0  0  0
   -5.9583    3.2803    1.2967 C   0  0  0  0  0  0  0  0  0  0  0  0
   -3.1110   -0.0280    0.6168 N   0  0  0  0  0  0  0  0  0  0  0  0
   -2.4777   -0.0924    1.8591 C   0  0  0  0  0  0  0  0  0  0  0  0
   -2.8070    0.6064    2.8555 O   0  0  0  0  0  0  0  0  0  0  0  0
   -1.3894   -1.0870    1.8259 C   0  0  2  0  0  0  0  0  0  0  0  0
   -1.6012   -2.1507    2.9083 C   0  0  0  0  0  0  0  0  0  0  0  0
   -0.0886   -0.4260    1.9953 N   0  0  0  0  0  0  0  0  0  0  0  0
    1.1607   -1.0698    1.6966 C   0  0  0  0  0  0  0  0  0  0  0  0
    1.1772   -2.2474    1.2433 O   0  0  0  0  0  0  0  0  0  0  0  0
    2.4556   -0.3099    1.8492 C   0  0  1  0  0  0  0  0  0  0  0  0
    3.5696   -1.2021    2.4566 C   0  0  0  0  0  0  0  0  0  0  0  0
    4.2175   -2.0109    1.4077 N   0  0  0  0  0  0  0  0  0  0  0  0
    5.0338   -3.0909    1.9842 C   0  0  0  0  0  0  0  0  0  0  0  0
    4.8711   -1.2060    0.3282 C   0  0  2  0  0  0  0  0  0  0  0  0
    6.4396   -1.2663    0.2760 C   0  0  0  0  0  0  0  0  0  0  0  0
    6.9167   -0.3942   -0.8529 C   0  0  0  0  0  0  0  0  0  0  0  0
    8.0991   -0.3748   -1.5865 C   0  0  0  0  0  0  0  0  0  0  0  0
    8.0471    0.6157   -2.5192 N   0  0  0  0  0  0  0  0  0  0  0  0
    6.8474    1.2112   -2.3629 C   0  0  0  0  0  0  0  0  0  0  0  0
    6.3005    2.2899   -3.0566 C   0  0  0  0  0  0  0  0  0  0  0  0
    5.0175    2.7371   -2.6618 C   0  0  0  0  0  0  0  0  0  0  0  0
    4.3229    2.1053   -1.5953 C   0  0  0  0  0  0  0  0  0  0  0  0
    4.9008    0.9945   -0.9373 C   0  0  0  0  0  0  0  0  0  0  0  0
    6.1615    0.6161   -1.3577 C   0  0  0  0  0  0  0  0  0  0  0  0
    4.3804    0.2923    0.3090 C   0  0  1  0  0  0  0  0  0  0  0  0
    2.8591    0.3272    0.4927 C   0  0  0  0  0  0  0  0  0  0  0  0
   -1.4635   -1.6892    0.5391 O   0  0  0  0  0  0  0  0  0  0  0  0
   -2.4280   -0.9863   -0.2425 C   0  0  1  0  0  0  0  0  0  0  0  0
   -1.7574   -0.3065   -1.2771 O   0  0  0  0  0  0  0  0  0  0  0  0
   -3.8604   -2.5924    0.0599 H   0  0  0  0  0  0  0  0  0  0  0  0
   -2.6916   -3.9095   -1.4766 H   0  0  0  0  0  0  0  0  0  0  0  0
   -2.0747   -2.4902   -2.4069 H   0  0  0  0  0  0  0  0  0  0  0  0
   -3.7435   -3.0701   -3.9319 H   0  0  0  0  0  0  0  0  0  0  0  0
   -4.7079   -3.9384   -2.6676 H   0  0  0  0  0  0  0  0  0  0  0  0
   -4.7933   -1.0289   -3.4512 H   0  0  0  0  0  0  0  0  0  0  0  0
   -6.0641   -2.0601   -2.6518 H   0  0  0  0  0  0  0  0  0  0  0  0
   -5.0298    0.5682    1.2431 H   0  0  0  0  0  0  0  0  0  0  0  0
   -3.3985    2.5353    0.7468 H   0  0  0  0  0  0  0  0  0  0  0  0
   -3.6322    2.2052   -0.9879 H   0  0  0  0  0  0  0  0  0  0  0  0
   -5.5296    3.2027   -2.0876 H   0  0  0  0  0  0  0  0  0  0  0  0
   -7.5824    4.5689   -1.9826 H   0  0  0  0  0  0  0  0  0  0  0  0
   -8.6079    5.1158    0.2069 H   0  0  0  0  0  0  0  0  0  0  0  0
   -7.5706    4.2934    2.3028 H   0  0  0  0  0  0  0  0  0  0  0  0
   -5.5145    2.9272    2.2195 H   0  0  0  0  0  0  0  0  0  0  0  0
   -0.8310   -2.9458    2.8274 H   0  0  0  0  0  0  0  0  0  0  0  0
   -1.5326   -1.6938    3.9189 H   0  0  0  0  0  0  0  0  0  0  0  0
   -2.6003   -2.6243    2.7937 H   0  0  0  0  0  0  0  0  0  0  0  0
   -0.0603    0.5625    2.3361 H   0  0  0  0  0  0  0  0  0  0  0  0
    2.2870    0.5131    2.5792 H   0  0  0  0  0  0  0  0  0  0  0  0
    3.1230   -1.8555    3.2402 H   0  0  0  0  0  0  0  0  0  0  0  0
    4.3299   -0.5699    2.9681 H   0  0  0  0  0  0  0  0  0  0  0  0
    5.4068   -3.7603    1.1811 H   0  0  0  0  0  0  0  0  0  0  0  0
    4.4131   -3.7224    2.6552 H   0  0  0  0  0  0  0  0  0  0  0  0
    5.8838   -2.6802    2.5709 H   0  0  0  0  0  0  0  0  0  0  0  0
    4.5221   -1.6613   -0.6270 H   0  0  0  0  0  0  0  0  0  0  0  0
    6.7950   -2.3004    0.0874 H   0  0  0  0  0  0  0  0  0  0  0  0
    6.8694   -0.8911    1.2289 H   0  0  0  0  0  0  0  0  0  0  0  0
    8.9399   -1.0426   -1.4533 H   0  0  0  0  0  0  0  0  0  0  0  0
    8.7889    0.8641   -3.2107 H   0  0  0  0  0  0  0  0  0  0  0  0
    6.8408    2.7740   -3.8595 H   0  0  0  0  0  0  0  0  0  0  0  0
    4.5674    3.5814   -3.1674 H   0  0  0  0  0  0  0  0  0  0  0  0
    3.3605    2.4934   -1.2946 H   0  0  0  0  0  0  0  0  0  0  0  0
    4.8380    0.8311    1.1690 H   0  0  0  0  0  0  0  0  0  0  0  0
    2.4915    1.3750    0.4792 H   0  0  0  0  0  0  0  0  0  0  0  0
    2.3873   -0.2070   -0.3631 H   0  0  0  0  0  0  0  0  0  0  0  0
   -2.4317    0.2013   -1.7979 H   0  0  0  0  0  0  0  0  0  0  0  0
  1  2  1  0
  2  3  1  0
  3  4  1  0
  4  5  1  0
  5  6  1  0
  6  7  2  0
  6  8  1  0
  8  9  1  0
  9 10  1  0
 10 11  2  0
 11 12  1  0
 12 13  2  0
 13 14  1  0
 14 15  2  0
  8 16  1  0
 16 17  1  0
 17 18  2  0
 17 19  1  0
 19 20  1  0
 19 21  1  1
 21 22  1  0
 22 23  2  0
 22 24  1  0
 24 25  1  0
 25 26  1  0
 26 27  1  0
 26 28  1  0
 28 29  1  0
 29 30  1  0
 30 31  2  0
 31 32  1  0
 32 33  1  0
 33 34  2  0
 34 35  1  0
 35 36  2  0
 36 37  1  0
 37 38  2  0
 37 39  1  0
 39 40  1  0
 19 41  1  0
 41 42  1  0
 42 43  1  6
  5  1  1  0
 15 10  1  0
 42 16  1  0
 42  1  1  0
 40 24  1  0
 39 28  1  0
 38 30  1  0
 38 33  1  0
  1 44  1  1
  2 45  1  0
  2 46  1  0
  3 47  1  0
  3 48  1  0
  4 49  1  0
  4 50  1  0
  8 51  1  1
  9 52  1  0
  9 53  1  0
 11 54  1  0
 12 55  1  0
 13 56  1  0
 14 57  1  0
 15 58  1  0
 20 59  1  0
 20 60  1  0
 20 61  1  0
 21 62  1  0
 24 63  1  1
 25 64  1  0
 25 65  1  0
 27 66  1  0
 27 67  1  0
 27 68  1  0
 28 69  1  6
 29 70  1  0
 29 71  1  0
 31 72  1  0
 32 73  1  0
 34 74  1  0
 35 75  1  0
 36 76  1  0
 39 77  1  1
 40 78  1  0
 40 79  1  0
 43 80  1  0
M  END
$$$$
