
     RDKit          3D

 46 49  0  0  0  0  0  0  0  0999 V2000
   -0.2249   -1.7079   -1.5429 C   0  0  2  0  0  0  0  0  0  0  0  0
    0.4166   -3.1001   -1.4777 C   0  0  0  0  0  0  0  0  0  0  0  0
    1.5975   -2.9992   -0.5155 C   0  0  0  0  0  0  0  0  0  0  0  0
    1.8375   -1.5158   -0.2575 C   0  0  0  0  0  0  0  0  0  0  0  0
    0.9497   -0.7608   -1.2504 C   0  0  2  0  0  0  0  0  0  0  0  0
    0.4732    0.6150   -0.7452 C   0  0  1  0  0  0  0  0  0  0  0  0
   -0.3868    0.4511    0.3780 O   0  0  0  0  0  0  0  0  0  0  0  0
   -1.3985   -0.5128    0.3890 C   0  0  0  0  0  0  0  0  0  0  0  0
   -1.3804   -1.5631   -0.5548 C   0  0  0  0  0  0  0  0  0  0  0  0
   -2.4765   -2.4405   -0.6184 C   0  0  0  0  0  0  0  0  0  0  0  0
   -3.5293   -2.3327    0.2974 C   0  0  0  0  0  0  0  0  0  0  0  0
   -4.6083   -3.2125    0.2443 O   0  0  0  0  0  0  0  0  0  0  0  0
   -3.5026   -1.3360    1.2747 C   0  0  0  0  0  0  0  0  0  0  0  0
   -2.4396   -0.4232    1.3327 C   0  0  0  0  0  0  0  0  0  0  0  0
   -2.4682    0.6799    2.3622 C   0  0  0  0  0  0  0  0  0  0  0  0
   -3.4342    1.6559    2.0219 O   0  0  0  0  0  0  0  0  0  0  0  0
   -2.8731    2.6207    1.1584 C   0  0  0  0  0  0  0  0  0  0  0  0
    1.6313    1.5305   -0.4145 C   0  0  0  0  0  0  0  0  0  0  0  0
    2.1273    1.6391    0.8984 C   0  0  0  0  0  0  0  0  0  0  0  0
    3.2208    2.4652    1.1746 C   0  0  0  0  0  0  0  0  0  0  0  0
    3.8379    3.1841    0.1466 C   0  0  0  0  0  0  0  0  0  0  0  0
    4.9265    4.0032    0.4372 O   0  0  0  0  0  0  0  0  0  0  0  0
    3.3578    3.0721   -1.1646 C   0  0  0  0  0  0  0  0  0  0  0  0
    2.2647    2.2469   -1.4442 C   0  0  0  0  0  0  0  0  0  0  0  0
   -0.6172   -1.5151   -2.5662 H   0  0  0  0  0  0  0  0  0  0  0  0
    0.7953   -3.3681   -2.4892 H   0  0  0  0  0  0  0  0  0  0  0  0
   -0.2832   -3.9005   -1.1575 H   0  0  0  0  0  0  0  0  0  0  0  0
    1.3613   -3.5196    0.4387 H   0  0  0  0  0  0  0  0  0  0  0  0
    2.5008   -3.4689   -0.9631 H   0  0  0  0  0  0  0  0  0  0  0  0
    2.9075   -1.2511   -0.4034 H   0  0  0  0  0  0  0  0  0  0  0  0
    1.5511   -1.2812    0.7912 H   0  0  0  0  0  0  0  0  0  0  0  0
    1.5249   -0.6164   -2.1941 H   0  0  0  0  0  0  0  0  0  0  0  0
   -0.1254    1.0881   -1.5562 H   0  0  0  0  0  0  0  0  0  0  0  0
   -2.5134   -3.2106   -1.3787 H   0  0  0  0  0  0  0  0  0  0  0  0
   -4.6593   -3.9473   -0.4517 H   0  0  0  0  0  0  0  0  0  0  0  0
   -4.3217   -1.2618    1.9800 H   0  0  0  0  0  0  0  0  0  0  0  0
   -2.7628    0.2368    3.3373 H   0  0  0  0  0  0  0  0  0  0  0  0
   -1.4563    1.1130    2.5404 H   0  0  0  0  0  0  0  0  0  0  0  0
   -2.5377    2.1621    0.2029 H   0  0  0  0  0  0  0  0  0  0  0  0
   -2.0338    3.1624    1.6481 H   0  0  0  0  0  0  0  0  0  0  0  0
   -3.6537    3.3691    0.9116 H   0  0  0  0  0  0  0  0  0  0  0  0
    1.6730    1.0851    1.7098 H   0  0  0  0  0  0  0  0  0  0  0  0
    3.5914    2.5439    2.1887 H   0  0  0  0  0  0  0  0  0  0  0  0
    5.3958    4.5362   -0.2856 H   0  0  0  0  0  0  0  0  0  0  0  0
    3.8329    3.6207   -1.9678 H   0  0  0  0  0  0  0  0  0  0  0  0
    1.9123    2.1642   -2.4650 H   0  0  0  0  0  0  0  0  0  0  0  0
  1  2  1  0
  2  3  1  0
  3  4  1  0
  4  5  1  0
  5  6  1  0
  6  7  1  0
  7  8  1  0
  8  9  2  0
  9 10  1  0
 10 11  2  0
 11 12  1  0
 11 13  1  0
 13 14  2  0
 14 15  1  0
 15 16  1  0
 16 17  1  0
  6 18  1  0
 18 19  2  0
 19 20  1  0
 20 21  2  0
 21 22  1  0
 21 23  1  0
 23 24  2  0
  5  1  1  0
 14  8  1  0
 24 18  1  0
  9  1  1  0
  1 25  1  6
  2 26  1  0
  2 27  1  0
  3 28  1  0
  3 29  1  0
  4 30  1  0
  4 31  1  0
  5 32  1  6
  6 33  1  6
 10 34  1  0
 12 35  1  0
 13 36  1  0
 15 37  1  0
 15 38  1  0
 17 39  1  0
 17 40  1  0
 17 41  1  0
 19 42  1  0
 20 43  1  0
 22 44  1  0
 23 45  1  0
 24 46  1  0
M  END
$$$$
