
     RDKit          3D

 68 70  0  0  0  0  0  0  0  0999 V2000
   -1.0919    0.2034   -1.6908 C   0  0  1  0  0  0  0  0  0  0  0  0
   -1.5177    1.3857   -0.7950 C   0  0  0  0  0  0  0  0  0  0  0  0
   -2.9123    1.9192   -1.1547 C   0  0  0  0  0  0  0  0  0  0  0  0
   -3.2614    3.0723   -0.3221 N   0  0  0  0  0  0  0  0  0  0  0  0
   -4.5191    3.7658   -0.4254 C   0  0  0  0  0  0  0  0  0  0  0  0
   -4.7774    4.8529    0.4218 C   0  0  0  0  0  0  0  0  0  0  0  0
   -5.9949    5.5311    0.3298 C   0  0  0  0  0  0  0  0  0  0  0  0
   -6.9292    5.1404   -0.5781 N   0  0  0  0  0  4  0  0  0  0  0  0
   -6.7081    4.0901   -1.4138 C   0  0  0  0  0  0  0  0  0  0  0  0
   -5.5037    3.3844   -1.3549 C   0  0  0  0  0  0  0  0  0  0  0  0
    0.2956   -0.1792   -1.4150 N   0  0  0  0  0  0  0  0  0  0  0  0
    1.0248   -1.0783   -2.2626 C   0  0  0  0  0  0  0  0  0  0  0  0
    0.5210   -1.4864   -3.3441 O   0  0  0  0  0  0  0  0  0  0  0  0
    2.4070   -1.5077   -1.8818 C   0  0  0  0  0  0  0  0  0  0  0  0
    3.3659   -0.4648   -2.2496 N   0  0  0  0  0  0  0  0  0  0  0  0
    4.9865   -0.9917   -1.9006 S   0  0  0  0  0  6  0  0  0  0  0  0
    5.2852   -2.2407   -2.6826 O   0  0  0  0  0  0  0  0  0  0  0  0
    5.9445    0.0856   -2.3261 O   0  0  0  0  0  0  0  0  0  0  0  0
    5.2065   -1.3209   -0.1471 C   0  0  0  0  0  0  0  0  0  0  0  0
    6.6661   -1.6978    0.1528 C   0  0  0  0  0  0  0  0  0  0  0  0
    6.8560   -2.1052    1.6290 C   0  0  0  0  0  0  0  0  0  0  0  0
    5.8557   -1.4284    2.5877 C   0  0  0  0  0  0  0  0  0  0  0  0
    5.4440   -0.0411    2.0858 C   0  0  0  0  0  0  0  0  0  0  0  0
    4.7584   -0.1085    0.7052 C   0  0  0  0  0  0  0  0  0  0  0  0
   -2.0139   -0.9832   -1.5136 C   0  0  0  0  0  0  0  0  0  0  0  0
   -2.6524   -1.4060   -2.5157 O   0  0  0  0  0  0  0  0  0  0  0  0
   -2.2307   -1.5963   -0.2275 N   0  0  0  0  0  0  0  0  0  0  0  0
   -1.0944   -1.8976    0.6583 C   0  0  0  0  0  0  0  0  0  0  0  0
   -1.5112   -2.8050    1.8211 C   0  0  0  0  0  0  0  0  0  0  0  0
   -2.7428   -2.2449    2.5462 C   0  0  0  0  0  0  0  0  0  0  0  0
   -3.8735   -1.7965    1.5924 C   0  0  0  0  0  0  0  0  0  0  0  0
   -3.5734   -2.0815    0.1162 C   0  0  0  0  0  0  0  0  0  0  0  0
   -1.1474    0.5525   -2.7469 H   0  0  0  0  0  0  0  0  0  0  0  0
   -0.7812    2.2096   -0.9222 H   0  0  0  0  0  0  0  0  0  0  0  0
   -1.5071    1.0851    0.2743 H   0  0  0  0  0  0  0  0  0  0  0  0
   -2.9240    2.2237   -2.2237 H   0  0  0  0  0  0  0  0  0  0  0  0
   -3.6668    1.1190   -0.9956 H   0  0  0  0  0  0  0  0  0  0  0  0
   -2.5719    3.4077    0.3898 H   0  0  0  0  0  0  0  0  0  0  0  0
   -4.0413    5.1727    1.1487 H   0  0  0  0  0  0  0  0  0  0  0  0
   -6.1941    6.3704    0.9843 H   0  0  0  0  0  0  0  0  0  0  0  0
   -7.8349    5.6575   -0.6349 H   0  0  0  0  0  0  0  0  0  0  0  0
   -7.4677    3.7986   -2.1282 H   0  0  0  0  0  0  0  0  0  0  0  0
   -5.3525    2.5537   -2.0304 H   0  0  0  0  0  0  0  0  0  0  0  0
    0.7819    0.2116   -0.5756 H   0  0  0  0  0  0  0  0  0  0  0  0
    2.6506   -2.4560   -2.4090 H   0  0  0  0  0  0  0  0  0  0  0  0
    2.4316   -1.6974   -0.7872 H   0  0  0  0  0  0  0  0  0  0  0  0
    3.1821    0.3797   -1.6603 H   0  0  0  0  0  0  0  0  0  0  0  0
    4.5716   -2.1962    0.1129 H   0  0  0  0  0  0  0  0  0  0  0  0
    7.3221   -0.8282   -0.0741 H   0  0  0  0  0  0  0  0  0  0  0  0
    6.9855   -2.5398   -0.4990 H   0  0  0  0  0  0  0  0  0  0  0  0
    6.7464   -3.2075    1.7243 H   0  0  0  0  0  0  0  0  0  0  0  0
    7.8930   -1.8492    1.9378 H   0  0  0  0  0  0  0  0  0  0  0  0
    4.9461   -2.0614    2.6843 H   0  0  0  0  0  0  0  0  0  0  0  0
    6.3115   -1.3395    3.5974 H   0  0  0  0  0  0  0  0  0  0  0  0
    6.3517    0.5987    2.0180 H   0  0  0  0  0  0  0  0  0  0  0  0
    4.7559    0.4311    2.8199 H   0  0  0  0  0  0  0  0  0  0  0  0
    3.6572   -0.1635    0.8488 H   0  0  0  0  0  0  0  0  0  0  0  0
    4.9731    0.8422    0.1701 H   0  0  0  0  0  0  0  0  0  0  0  0
   -0.2967   -2.4130    0.0812 H   0  0  0  0  0  0  0  0  0  0  0  0
   -0.6813   -0.9549    1.0726 H   0  0  0  0  0  0  0  0  0  0  0  0
   -1.7419   -3.8206    1.4310 H   0  0  0  0  0  0  0  0  0  0  0  0
   -0.6680   -2.9023    2.5387 H   0  0  0  0  0  0  0  0  0  0  0  0
   -2.4272   -1.3780    3.1676 H   0  0  0  0  0  0  0  0  0  0  0  0
   -3.1291   -3.0215    3.2416 H   0  0  0  0  0  0  0  0  0  0  0  0
   -4.8235   -2.3013    1.8724 H   0  0  0  0  0  0  0  0  0  0  0  0
   -4.0337   -0.7021    1.7113 H   0  0  0  0  0  0  0  0  0  0  0  0
   -4.3460   -1.5770   -0.5052 H   0  0  0  0  0  0  0  0  0  0  0  0
   -3.6333   -3.1739   -0.0800 H   0  0  0  0  0  0  0  0  0  0  0  0
  1  2  1  0
  2  3  1  0
  3  4  1  0
  4  5  1  0
  5  6  2  0
  6  7  1  0
  7  8  2  0
  8  9  1  0
  9 10  2  0
  1 11  1  0
 11 12  1  0
 12 13  2  0
 12 14  1  0
 14 15  1  0
 15 16  1  0
 16 17  2  0
 16 18  2  0
 16 19  1  0
 19 20  1  0
 20 21  1  0
 21 22  1  0
 22 23  1  0
 23 24  1  0
  1 25  1  0
 25 26  2  0
 25 27  1  0
 27 28  1  0
 28 29  1  0
 29 30  1  0
 30 31  1  0
 31 32  1  0
 10  5  1  0
 24 19  1  0
 32 27  1  0
  1 33  1  6
  2 34  1  0
  2 35  1  0
  3 36  1  0
  3 37  1  0
  4 38  1  0
  6 39  1  0
  7 40  1  0
  8 41  1  0
  9 42  1  0
 10 43  1  0
 11 44  1  0
 14 45  1  0
 14 46  1  0
 15 47  1  0
 19 48  1  0
 20 49  1  0
 20 50  1  0
 21 51  1  0
 21 52  1  0
 22 53  1  0
 22 54  1  0
 23 55  1  0
 23 56  1  0
 24 57  1  0
 24 58  1  0
 28 59  1  0
 28 60  1  0
 29 61  1  0
 29 62  1  0
 30 63  1  0
 30 64  1  0
 31 65  1  0
 31 66  1  0
 32 67  1  0
 32 68  1  0
M  CHG  1   8   1
M  END
$$$$
