
     RDKit          3D

 28 30  0  0  0  0  0  0  0  0999 V2000
   -3.7696    1.4414   -0.1716 C   0  0  0  0  0  0  0  0  0  0  0  0
   -2.4731    0.6773   -0.1057 C   0  0  0  0  0  0  0  0  0  0  0  0
   -1.2570    1.3833   -0.1352 C   0  0  0  0  0  0  0  0  0  0  0  0
   -0.0408    0.7000   -0.0724 C   0  0  0  0  0  0  0  0  0  0  0  0
    1.1363    1.3809   -0.1034 N   0  0  0  0  0  0  0  0  0  0  0  0
    2.3269    0.7262   -0.0439 C   0  0  0  0  0  0  0  0  0  0  0  0
    2.3397   -0.6760    0.0510 C   0  0  0  0  0  0  0  0  0  0  0  0
    1.1642   -1.3600    0.0825 N   0  0  0  0  0  0  0  0  0  0  0  0
   -0.0265   -0.7055    0.0232 C   0  0  0  0  0  0  0  0  0  0  0  0
   -1.2284   -1.4156    0.0572 C   0  0  0  0  0  0  0  0  0  0  0  0
   -2.4587   -0.7366   -0.0016 C   0  0  0  0  0  0  0  0  0  0  0  0
   -3.7393   -1.5291    0.0336 C   0  0  0  0  0  0  0  0  0  0  0  0
    3.5726   -1.3298    0.1108 C   0  0  0  0  0  0  0  0  0  0  0  0
    3.6250   -2.5866    0.1964 O   0  0  0  0  0  0  0  0  0  0  0  0
    4.7225   -0.6015    0.0762 N   0  0  0  0  0  0  0  0  0  0  0  0
    4.6911    0.7583   -0.0161 C   0  0  0  0  0  0  0  0  0  0  0  0
    5.7690    1.4107   -0.0465 O   0  0  0  0  0  0  0  0  0  0  0  0
    3.4988    1.4148   -0.0756 N   0  0  0  0  0  0  0  0  0  0  0  0
   -3.5982    2.5298   -0.3128 H   0  0  0  0  0  0  0  0  0  0  0  0
   -4.3364    1.3009    0.7724 H   0  0  0  0  0  0  0  0  0  0  0  0
   -4.3800    1.0799   -1.0253 H   0  0  0  0  0  0  0  0  0  0  0  0
   -1.2533    2.4646   -0.2083 H   0  0  0  0  0  0  0  0  0  0  0  0
   -1.2025   -2.4965    0.1306 H   0  0  0  0  0  0  0  0  0  0  0  0
   -4.2863   -1.4010   -0.9237 H   0  0  0  0  0  0  0  0  0  0  0  0
   -3.5473   -2.6135    0.1791 H   0  0  0  0  0  0  0  0  0  0  0  0
   -4.3777   -1.1814    0.8724 H   0  0  0  0  0  0  0  0  0  0  0  0
    5.6445   -1.0931    0.1211 H   0  0  0  0  0  0  0  0  0  0  0  0
    3.4843    2.4580   -0.1463 H   0  0  0  0  0  0  0  0  0  0  0  0
  1  2  1  0
  2  3  2  0
  3  4  1  0
  4  5  2  0
  5  6  1  0
  6  7  2  0
  7  8  1  0
  8  9  2  0
  9 10  1  0
 10 11  2  0
 11 12  1  0
  7 13  1  0
 13 14  2  0
 13 15  1  0
 15 16  1  0
 16 17  2  0
 16 18  1  0
 11  2  1  0
  9  4  1  0
 18  6  1  0
  1 19  1  0
  1 20  1  0
  1 21  1  0
  3 22  1  0
 10 23  1  0
 12 24  1  0
 12 25  1  0
 12 26  1  0
 15 27  1  0
 18 28  1  0
M  END
$$$$
