
     RDKit          3D

 30 32  0  0  0  0  0  0  0  0999 V2000
    6.0332   -0.1287    0.4659 O   0  0  0  0  0  0  0  0  0  0  0  0
    4.6558   -0.0820    0.2630 C   0  0  0  0  0  0  0  0  0  0  0  0
    3.8120   -0.8446    1.0746 C   0  0  0  0  0  0  0  0  0  0  0  0
    2.4277   -0.8074    0.8834 C   0  0  0  0  0  0  0  0  0  0  0  0
    1.8656    0.0011   -0.1242 C   0  0  0  0  0  0  0  0  0  0  0  0
    2.7253    0.7590   -0.9418 C   0  0  0  0  0  0  0  0  0  0  0  0
    4.1091    0.7195   -0.7466 C   0  0  0  0  0  0  0  0  0  0  0  0
    0.3929    0.0365   -0.3397 C   0  0  0  0  0  0  0  0  0  0  0  0
   -0.4521    0.0268    0.7090 C   0  0  0  0  0  0  0  0  0  0  0  0
   -1.9114    0.0163    0.5080 C   0  0  0  0  0  0  0  0  0  0  0  0
   -2.4097   -0.1321   -0.7919 C   0  0  0  0  0  0  0  0  0  0  0  0
   -1.5150   -0.2130   -1.8607 O   0  0  0  0  0  0  0  0  0  0  0  0
   -0.1559    0.2182   -1.7442 C   0  0  0  0  0  0  0  0  0  0  0  0
   -3.7878   -0.2217   -1.0117 C   0  0  0  0  0  0  0  0  0  0  0  0
   -4.6756   -0.1442    0.0680 C   0  0  0  0  0  0  0  0  0  0  0  0
   -6.0469   -0.2262   -0.1623 O   0  0  0  0  0  0  0  0  0  0  0  0
   -4.1773    0.0135    1.3703 C   0  0  0  0  0  0  0  0  0  0  0  0
   -2.7978    0.0876    1.5913 C   0  0  0  0  0  0  0  0  0  0  0  0
    6.6713    0.4120   -0.1063 H   0  0  0  0  0  0  0  0  0  0  0  0
    4.2300   -1.4717    1.8519 H   0  0  0  0  0  0  0  0  0  0  0  0
    1.7994   -1.4262    1.5115 H   0  0  0  0  0  0  0  0  0  0  0  0
    2.3296    1.3942   -1.7236 H   0  0  0  0  0  0  0  0  0  0  0  0
    4.7554    1.3134   -1.3804 H   0  0  0  0  0  0  0  0  0  0  0  0
   -0.0692    0.0095    1.7225 H   0  0  0  0  0  0  0  0  0  0  0  0
    0.4610   -0.3502   -2.4717 H   0  0  0  0  0  0  0  0  0  0  0  0
   -0.1058    1.2959   -2.0071 H   0  0  0  0  0  0  0  0  0  0  0  0
   -4.1677   -0.3451   -2.0180 H   0  0  0  0  0  0  0  0  0  0  0  0
   -6.7153   -0.1740    0.5975 H   0  0  0  0  0  0  0  0  0  0  0  0
   -4.8572    0.0706    2.2108 H   0  0  0  0  0  0  0  0  0  0  0  0
   -2.4236    0.1932    2.6021 H   0  0  0  0  0  0  0  0  0  0  0  0
  1  2  1  0
  2  3  2  0
  3  4  1  0
  4  5  2  0
  5  6  1  0
  6  7  2  0
  5  8  1  0
  8  9  2  0
  9 10  1  0
 10 11  2  0
 11 12  1  0
 12 13  1  0
 11 14  1  0
 14 15  2  0
 15 16  1  0
 15 17  1  0
 17 18  2  0
  7  2  1  0
 13  8  1  0
 18 10  1  0
  1 19  1  0
  3 20  1  0
  4 21  1  0
  6 22  1  0
  7 23  1  0
  9 24  1  0
 13 25  1  0
 13 26  1  0
 14 27  1  0
 16 28  1  0
 17 29  1  0
 18 30  1  0
M  END
$$$$
