
     RDKit          3D

 12 11  0  0  0  0  0  0  0  0999 V2000
    1.2834   -0.0797   -0.5056 C   0  0  0  0  0  0  0  0  0  0  0  0
    0.0803    0.2103    0.3899 C   0  0  0  0  0  0  0  0  0  0  0  0
   -1.1416   -0.5879   -0.0714 C   0  0  0  0  0  0  0  0  0  0  0  0
   -0.2025    1.5841    0.3486 O   0  0  0  0  0  0  0  0  0  0  0  0
    1.5376   -1.1607   -0.4716 H   0  0  0  0  0  0  0  0  0  0  0  0
    2.1629    0.4990   -0.1514 H   0  0  0  0  0  0  0  0  0  0  0  0
    1.0657    0.2100   -1.5561 H   0  0  0  0  0  0  0  0  0  0  0  0
    0.3407   -0.0938    1.4304 H   0  0  0  0  0  0  0  0  0  0  0  0
   -2.0009   -0.3855    0.6025 H   0  0  0  0  0  0  0  0  0  0  0  0
   -1.4250   -0.3008   -1.1068 H   0  0  0  0  0  0  0  0  0  0  0  0
   -0.9235   -1.6768   -0.0425 H   0  0  0  0  0  0  0  0  0  0  0  0
   -0.7771    1.7819    1.1340 H   0  0  0  0  0  0  0  0  0  0  0  0
  1  2  1  0
  2  3  1  0
  2  4  1  0
  1  5  1  0
  1  6  1  0
  1  7  1  0
  2  8  1  0
  3  9  1  0
  3 10  1  0
  3 11  1  0
  4 12  1  0
M  END
$$$$
