
     RDKit          3D

 49 52  0  0  0  0  0  0  0  0999 V2000
    3.8530    0.7226   -0.3953 C   0  0  2  0  0  0  0  0  0  0  0  0
    3.8360    2.0224   -0.9326 O   0  0  0  0  0  0  0  0  0  0  0  0
    4.0091   -0.2985   -1.5447 C   0  0  0  0  0  0  0  0  0  0  0  0
    2.6233   -0.9186   -1.7926 C   0  0  0  0  0  0  0  0  0  0  0  0
    1.6762   -0.0572   -0.9686 C   0  0  1  0  0  0  0  0  0  0  0  0
    0.2917   -0.6239   -0.5868 C   0  0  2  0  0  0  0  0  0  0  0  0
   -0.4875   -1.0488   -1.8428 C   0  0  0  0  0  0  0  0  0  0  0  0
   -1.8572   -1.6081   -1.4702 C   0  0  0  0  0  0  0  0  0  0  0  0
   -2.6382   -0.6232   -0.6320 C   0  0  0  0  0  0  0  0  0  0  0  0
   -3.9584   -0.4939   -0.8601 C   0  0  0  0  0  0  0  0  0  0  0  0
   -4.8201    0.3364   -0.0089 C   0  0  0  0  0  0  0  0  0  0  0  0
   -6.0440    0.4498   -0.2839 O   0  0  0  0  0  0  0  0  0  0  0  0
   -4.2722    0.9918    1.2167 C   0  0  0  0  0  0  0  0  0  0  0  0
   -2.7760    1.2727    1.0522 C   0  0  0  0  0  0  0  0  0  0  0  0
   -1.9598    0.0225    0.5867 C   0  0  1  0  0  0  0  0  0  0  0  0
   -1.9302   -1.0238    1.7306 C   0  0  0  0  0  0  0  0  0  0  0  0
   -0.5058    0.4859    0.1796 C   0  0  1  0  0  0  0  0  0  0  0  0
    0.3166    1.0968    1.3617 C   0  0  0  0  0  0  0  0  0  0  0  0
    1.7493    1.5183    0.9570 C   0  0  0  0  0  0  0  0  0  0  0  0
    2.4982    0.3602    0.2556 C   0  0  2  0  0  0  0  0  0  0  0  0
    2.7568   -0.7947    1.2746 C   0  0  0  0  0  0  0  0  0  0  0  0
    4.7046    0.6196    0.3198 H   0  0  0  0  0  0  0  0  0  0  0  0
    4.1143    2.6376   -0.2048 H   0  0  0  0  0  0  0  0  0  0  0  0
    4.7298   -1.0946   -1.2559 H   0  0  0  0  0  0  0  0  0  0  0  0
    4.3870    0.1936   -2.4680 H   0  0  0  0  0  0  0  0  0  0  0  0
    2.3597   -0.8851   -2.8723 H   0  0  0  0  0  0  0  0  0  0  0  0
    2.5977   -1.9741   -1.4440 H   0  0  0  0  0  0  0  0  0  0  0  0
    1.4863    0.8526   -1.5905 H   0  0  0  0  0  0  0  0  0  0  0  0
    0.4265   -1.5251    0.0431 H   0  0  0  0  0  0  0  0  0  0  0  0
    0.0728   -1.8388   -2.3877 H   0  0  0  0  0  0  0  0  0  0  0  0
   -0.6157   -0.1830   -2.5302 H   0  0  0  0  0  0  0  0  0  0  0  0
   -1.7323   -2.5519   -0.8967 H   0  0  0  0  0  0  0  0  0  0  0  0
   -2.3951   -1.8577   -2.4115 H   0  0  0  0  0  0  0  0  0  0  0  0
   -4.4212   -1.0138   -1.6910 H   0  0  0  0  0  0  0  0  0  0  0  0
   -4.4481    0.3343    2.0939 H   0  0  0  0  0  0  0  0  0  0  0  0
   -4.8041    1.9511    1.3973 H   0  0  0  0  0  0  0  0  0  0  0  0
   -2.6626    2.0937    0.3092 H   0  0  0  0  0  0  0  0  0  0  0  0
   -2.3966    1.6524    2.0244 H   0  0  0  0  0  0  0  0  0  0  0  0
   -1.6346   -0.5621    2.6953 H   0  0  0  0  0  0  0  0  0  0  0  0
   -1.2310   -1.8545    1.5114 H   0  0  0  0  0  0  0  0  0  0  0  0
   -2.9341   -1.4763    1.8759 H   0  0  0  0  0  0  0  0  0  0  0  0
   -0.6364    1.3216   -0.5473 H   0  0  0  0  0  0  0  0  0  0  0  0
    0.3716    0.3908    2.2124 H   0  0  0  0  0  0  0  0  0  0  0  0
   -0.1916    2.0079    1.7387 H   0  0  0  0  0  0  0  0  0  0  0  0
    2.3104    1.8444    1.8596 H   0  0  0  0  0  0  0  0  0  0  0  0
    1.6691    2.3979    0.2815 H   0  0  0  0  0  0  0  0  0  0  0  0
    1.8308   -1.2050    1.7185 H   0  0  0  0  0  0  0  0  0  0  0  0
    3.3824   -0.4214    2.1136 H   0  0  0  0  0  0  0  0  0  0  0  0
    3.2997   -1.6432    0.8090 H   0  0  0  0  0  0  0  0  0  0  0  0
  1  2  1  0
  1  3  1  0
  3  4  1  0
  4  5  1  0
  5  6  1  0
  6  7  1  0
  7  8  1  0
  8  9  1  0
  9 10  2  0
 10 11  1  0
 11 12  2  0
 11 13  1  0
 13 14  1  0
 14 15  1  0
 15 16  1  1
 15 17  1  0
 17 18  1  0
 18 19  1  0
 19 20  1  0
 20 21  1  1
 20  1  1  0
 20  5  1  0
 17  6  1  0
 15  9  1  0
  1 22  1  1
  2 23  1  0
  3 24  1  0
  3 25  1  0
  4 26  1  0
  4 27  1  0
  5 28  1  6
  6 29  1  1
  7 30  1  0
  7 31  1  0
  8 32  1  0
  8 33  1  0
 10 34  1  0
 13 35  1  0
 13 36  1  0
 14 37  1  0
 14 38  1  0
 16 39  1  0
 16 40  1  0
 16 41  1  0
 17 42  1  6
 18 43  1  0
 18 44  1  0
 19 45  1  0
 19 46  1  0
 21 47  1  0
 21 48  1  0
 21 49  1  0
M  END
$$$$
