
     RDKit          3D

 43 46  0  0  0  0  0  0  0  0999 V2000
   -5.2755    0.1157   -0.4245 C   0  0  0  0  0  0  0  0  0  0  0  0
   -4.6802   -0.2229    0.8794 N   0  0  0  0  0  0  0  0  0  0  0  0
   -3.8422    0.8674    1.4211 C   0  0  0  0  0  0  0  0  0  0  0  0
   -2.5069    1.0104    0.6788 C   0  0  0  0  0  0  0  0  0  0  0  0
   -1.8539   -0.2940    0.5717 N   0  0  0  0  0  0  0  0  0  0  0  0
   -2.6304   -1.4405    0.1018 C   0  0  0  0  0  0  0  0  0  0  0  0
   -3.9640   -1.5157    0.8574 C   0  0  0  0  0  0  0  0  0  0  0  0
   -0.4237   -0.3855    0.6435 C   0  0  0  0  0  0  0  0  0  0  0  0
    0.1614   -0.8917    1.8051 C   0  0  0  0  0  0  0  0  0  0  0  0
   -0.6176   -1.2777    2.8471 F   0  0  0  0  0  0  0  0  0  0  0  0
    1.5432   -1.0204    1.8980 C   0  0  0  0  0  0  0  0  0  0  0  0
    2.3750   -0.6027    0.8433 C   0  0  0  0  0  0  0  0  0  0  0  0
    3.7732   -0.7141    0.9466 C   0  0  0  0  0  0  0  0  0  0  0  0
    4.2887   -1.2184    1.9829 O   0  0  0  0  0  0  0  0  0  0  0  0
    4.5926   -0.2650   -0.1029 C   0  0  0  0  0  0  0  0  0  0  0  0
    3.9838    0.3276   -1.2186 C   0  0  0  0  0  0  0  0  0  0  0  0
    2.6264    0.4673   -1.3119 N   0  0  0  0  0  0  0  0  0  0  0  0
    2.1227    1.1787   -2.5056 C   0  0  0  0  0  0  0  0  0  0  0  0
    0.7469    1.7929   -2.2866 C   0  0  0  0  0  0  0  0  0  0  0  0
   -0.4069    0.4405   -1.9972 S   0  0  0  0  0  0  0  0  0  0  0  0
    0.3859   -0.0077   -0.4458 C   0  0  0  0  0  0  0  0  0  0  0  0
    1.8016   -0.0533   -0.3339 C   0  0  0  0  0  0  0  0  0  0  0  0
    6.0761   -0.3842   -0.0517 C   0  0  0  0  0  0  0  0  0  0  0  0
    6.7086   -0.9860    1.0332 O   0  0  0  0  0  0  0  0  0  0  0  0
    6.7822    0.0587   -0.9981 O   0  0  0  0  0  0  0  0  0  0  0  0
   -5.9676   -0.6911   -0.7472 H   0  0  0  0  0  0  0  0  0  0  0  0
   -4.5033    0.2585   -1.2086 H   0  0  0  0  0  0  0  0  0  0  0  0
   -5.8745    1.0472   -0.3387 H   0  0  0  0  0  0  0  0  0  0  0  0
   -3.6337    0.6600    2.4937 H   0  0  0  0  0  0  0  0  0  0  0  0
   -4.3924    1.8332    1.3855 H   0  0  0  0  0  0  0  0  0  0  0  0
   -1.8593    1.7207    1.2385 H   0  0  0  0  0  0  0  0  0  0  0  0
   -2.6748    1.4306   -0.3347 H   0  0  0  0  0  0  0  0  0  0  0  0
   -2.0680   -2.3848    0.2730 H   0  0  0  0  0  0  0  0  0  0  0  0
   -2.8092   -1.3463   -0.9899 H   0  0  0  0  0  0  0  0  0  0  0  0
   -3.7632   -1.8316    1.9047 H   0  0  0  0  0  0  0  0  0  0  0  0
   -4.6034   -2.3051    0.4049 H   0  0  0  0  0  0  0  0  0  0  0  0
    1.9608   -1.4329    2.8085 H   0  0  0  0  0  0  0  0  0  0  0  0
    4.6117    0.6985   -2.0218 H   0  0  0  0  0  0  0  0  0  0  0  0
    2.8130    2.0087   -2.7779 H   0  0  0  0  0  0  0  0  0  0  0  0
    2.0882    0.4743   -3.3656 H   0  0  0  0  0  0  0  0  0  0  0  0
    0.7571    2.4981   -1.4270 H   0  0  0  0  0  0  0  0  0  0  0  0
    0.4337    2.3434   -3.1986 H   0  0  0  0  0  0  0  0  0  0  0  0
    7.7178   -1.0683    1.0681 H   0  0  0  0  0  0  0  0  0  0  0  0
  1  2  1  0
  2  3  1  0
  3  4  1  0
  4  5  1  0
  5  6  1  0
  6  7  1  0
  5  8  1  0
  8  9  2  0
  9 10  1  0
  9 11  1  0
 11 12  2  0
 12 13  1  0
 13 14  2  0
 13 15  1  0
 15 16  2  0
 16 17  1  0
 17 18  1  0
 18 19  1  0
 19 20  1  0
 20 21  1  0
 21 22  2  0
 15 23  1  0
 23 24  1  0
 23 25  2  0
  7  2  1  0
 21  8  1  0
 22 12  1  0
 22 17  1  0
  1 26  1  0
  1 27  1  0
  1 28  1  0
  3 29  1  0
  3 30  1  0
  4 31  1  0
  4 32  1  0
  6 33  1  0
  6 34  1  0
  7 35  1  0
  7 36  1  0
 11 37  1  0
 16 38  1  0
 18 39  1  0
 18 40  1  0
 19 41  1  0
 19 42  1  0
 24 43  1  0
M  END
$$$$
