
     RDKit          3D

 41 43  0  0  0  0  0  0  0  0999 V2000
   -6.0838   -1.8985   -1.4947 N   0  0  0  0  0  0  0  0  0  0  0  0
   -5.4563   -0.8931   -0.6988 C   0  0  0  0  0  0  0  0  0  0  0  0
   -6.1933   -0.1213    0.1553 N   0  0  0  0  0  0  0  0  0  0  0  0
   -5.6060    0.8436    0.9346 C   0  0  0  0  0  0  0  0  0  0  0  0
   -4.2570    1.0583    0.8740 N   0  0  0  0  0  0  0  0  0  0  0  0
   -3.5313    0.2957    0.0207 C   0  0  0  0  0  0  0  0  0  0  0  0
   -4.0862   -0.6639   -0.7540 C   0  0  0  0  0  0  0  0  0  0  0  0
   -3.1405   -1.2941   -1.4762 N   0  0  0  0  0  0  0  0  0  0  0  0
   -1.9980   -0.6593   -1.0932 C   0  0  0  0  0  0  0  0  0  0  0  0
   -2.2094    0.3293   -0.1845 N   0  0  0  0  0  0  0  0  0  0  0  0
   -1.2115    1.1405    0.5143 C   0  0  2  0  0  0  0  0  0  0  0  0
   -0.1217    1.4132   -0.3416 O   0  0  0  0  0  0  0  0  0  0  0  0
    1.0747    1.2009    0.3811 C   0  0  2  0  0  0  0  0  0  0  0  0
    1.8625    0.0652   -0.2843 C   0  0  0  0  0  0  0  0  0  0  0  0
    3.1253   -0.0517    0.3296 O   0  0  0  0  0  0  0  0  0  0  0  0
    3.9909   -1.3078   -0.4374 P   0  0  0  0  0  5  0  0  0  0  0  0
    4.2345   -0.9504   -2.0765 O   0  0  0  0  0  0  0  0  0  0  0  0
    3.2079   -2.5977   -0.3348 O   0  0  0  0  0  0  0  0  0  0  0  0
    5.4810   -1.5340    0.3546 O   0  0  0  0  0  0  0  0  0  0  0  0
    6.4388   -0.1665    0.0777 S   0  0  0  0  0  6  0  0  0  0  0  0
    6.9216   -0.1048   -1.5319 O   0  0  0  0  0  0  0  0  0  0  0  0
    5.6953    1.0922    0.4309 O   0  0  0  0  0  0  0  0  0  0  0  0
    7.6631   -0.2557    0.9439 O   0  0  0  0  0  0  0  0  0  0  0  0
    0.7295    0.8829    1.8430 C   0  0  1  0  0  0  0  0  0  0  0  0
    0.8675    2.0238    2.6598 O   0  0  0  0  0  0  0  0  0  0  0  0
   -0.7045    0.4177    1.7538 C   0  0  1  0  0  0  0  0  0  0  0  0
   -1.4555    0.7696    2.8869 O   0  0  0  0  0  0  0  0  0  0  0  0
   -5.5267   -2.4926   -2.1482 H   0  0  0  0  0  0  0  0  0  0  0  0
   -7.1148   -2.0503   -1.4307 H   0  0  0  0  0  0  0  0  0  0  0  0
   -6.2142    1.4371    1.6031 H   0  0  0  0  0  0  0  0  0  0  0  0
   -1.0192   -0.9304   -1.4670 H   0  0  0  0  0  0  0  0  0  0  0  0
   -1.6676    2.1146    0.8030 H   0  0  0  0  0  0  0  0  0  0  0  0
    1.6911    2.1258    0.3251 H   0  0  0  0  0  0  0  0  0  0  0  0
    1.2800   -0.8791   -0.1854 H   0  0  0  0  0  0  0  0  0  0  0  0
    1.9741    0.3139   -1.3638 H   0  0  0  0  0  0  0  0  0  0  0  0
    4.2969    0.0370   -2.1199 H   0  0  0  0  0  0  0  0  0  0  0  0
    7.2836   -1.0069   -1.7223 H   0  0  0  0  0  0  0  0  0  0  0  0
    1.3676    0.0752    2.2647 H   0  0  0  0  0  0  0  0  0  0  0  0
    0.3124    2.7522    2.2748 H   0  0  0  0  0  0  0  0  0  0  0  0
   -0.7312   -0.6868    1.5937 H   0  0  0  0  0  0  0  0  0  0  0  0
   -1.1697    0.1562    3.6131 H   0  0  0  0  0  0  0  0  0  0  0  0
  1  2  1  0
  2  3  2  0
  3  4  1  0
  4  5  2  0
  5  6  1  0
  6  7  2  0
  7  8  1  0
  8  9  2  0
  9 10  1  0
 10 11  1  0
 11 12  1  0
 12 13  1  0
 13 14  1  0
 14 15  1  0
 15 16  1  0
 16 17  1  0
 16 18  2  0
 16 19  1  0
 19 20  1  0
 20 21  1  0
 20 22  2  0
 20 23  2  0
 13 24  1  0
 24 25  1  0
 24 26  1  0
 26 27  1  0
  7  2  1  0
 26 11  1  0
 10  6  1  0
  1 28  1  0
  1 29  1  0
  4 30  1  0
  9 31  1  0
 11 32  1  1
 13 33  1  1
 14 34  1  0
 14 35  1  0
 17 36  1  0
 21 37  1  0
 24 38  1  1
 25 39  1  0
 26 40  1  6
 27 41  1  0
M  END
$$$$
