
     RDKit          3D

 40 42  0  0  0  0  0  0  0  0999 V2000
   -7.1042    2.5989    0.9441 Cl  0  0  0  0  0  0  0  0  0  0  0  0
   -5.6925    1.5667    0.8087 C   0  0  0  0  0  0  0  0  0  0  0  0
   -5.6253    0.3735    1.5346 C   0  0  0  0  0  0  0  0  0  0  0  0
   -4.5015   -0.4512    1.4251 C   0  0  0  0  0  0  0  0  0  0  0  0
   -3.4267   -0.0830    0.6010 C   0  0  0  0  0  0  0  0  0  0  0  0
   -2.2933   -0.9603    0.4879 N   0  0  0  0  0  0  0  0  0  0  0  0
   -0.9401   -0.5049    0.3122 C   0  0  0  0  0  0  0  0  0  0  0  0
   -0.6618    0.7196    0.4290 O   0  0  0  0  0  0  0  0  0  0  0  0
    0.1490   -1.4704    0.0433 C   0  0  0  0  0  0  0  0  0  0  0  0
    1.1562   -1.1994   -0.9169 C   0  0  0  0  0  0  0  0  0  0  0  0
    1.0773   -0.0272   -1.7522 N   0  0  0  0  0  0  0  0  0  0  0  0
    2.2500    0.7285   -2.1930 C   0  0  0  0  0  0  0  0  0  0  0  0
    2.9995    1.2688   -1.0054 C   0  0  0  0  0  0  0  0  0  0  0  0
    4.2387    0.7277   -0.6328 C   0  0  0  0  0  0  0  0  0  0  0  0
    4.8956    1.2270    0.4945 C   0  0  0  0  0  0  0  0  0  0  0  0
    4.3334    2.2263    1.2253 N   0  0  0  0  0  0  0  0  0  0  0  0
    3.1314    2.7653    0.8894 C   0  0  0  0  0  0  0  0  0  0  0  0
    2.4411    2.2954   -0.2304 C   0  0  0  0  0  0  0  0  0  0  0  0
    2.2093   -2.1185   -1.0846 C   0  0  0  0  0  0  0  0  0  0  0  0
    2.2651   -3.2835   -0.3184 C   0  0  0  0  0  0  0  0  0  0  0  0
    1.2718   -3.5506    0.6217 C   0  0  0  0  0  0  0  0  0  0  0  0
    0.2205   -2.6512    0.8036 C   0  0  0  0  0  0  0  0  0  0  0  0
   -3.5120    1.1075   -0.1447 C   0  0  0  0  0  0  0  0  0  0  0  0
   -4.6375    1.9300   -0.0341 C   0  0  0  0  0  0  0  0  0  0  0  0
   -6.4431    0.0830    2.1816 H   0  0  0  0  0  0  0  0  0  0  0  0
   -4.4622   -1.3737    1.9907 H   0  0  0  0  0  0  0  0  0  0  0  0
   -2.4661   -1.9855    0.5900 H   0  0  0  0  0  0  0  0  0  0  0  0
    0.1382    0.3609   -1.9956 H   0  0  0  0  0  0  0  0  0  0  0  0
    1.9196    1.5815   -2.8249 H   0  0  0  0  0  0  0  0  0  0  0  0
    2.8979    0.0941   -2.8335 H   0  0  0  0  0  0  0  0  0  0  0  0
    4.6909   -0.0724   -1.2052 H   0  0  0  0  0  0  0  0  0  0  0  0
    5.8523    0.8177    0.7901 H   0  0  0  0  0  0  0  0  0  0  0  0
    2.7095    3.5572    1.4935 H   0  0  0  0  0  0  0  0  0  0  0  0
    1.4801    2.7228   -0.4890 H   0  0  0  0  0  0  0  0  0  0  0  0
    2.9793   -1.9519   -1.8244 H   0  0  0  0  0  0  0  0  0  0  0  0
    3.0781   -3.9842   -0.4587 H   0  0  0  0  0  0  0  0  0  0  0  0
    1.3204   -4.4531    1.2172 H   0  0  0  0  0  0  0  0  0  0  0  0
   -0.5208   -2.8656    1.5632 H   0  0  0  0  0  0  0  0  0  0  0  0
   -2.7254    1.3897   -0.8317 H   0  0  0  0  0  0  0  0  0  0  0  0
   -4.6924    2.8444   -0.6111 H   0  0  0  0  0  0  0  0  0  0  0  0
  1  2  1  0
  2  3  2  0
  3  4  1  0
  4  5  2  0
  5  6  1  0
  6  7  1  0
  7  8  2  0
  7  9  1  0
  9 10  1  0
 10 11  1  0
 11 12  1  0
 12 13  1  0
 13 14  2  0
 14 15  1  0
 15 16  2  0
 16 17  1  0
 17 18  2  0
 10 19  2  0
 19 20  1  0
 20 21  2  0
 21 22  1  0
  5 23  1  0
 23 24  2  0
 24  2  1  0
 22  9  2  0
 18 13  1  0
  3 25  1  0
  4 26  1  0
  6 27  1  0
 11 28  1  0
 12 29  1  0
 12 30  1  0
 14 31  1  0
 15 32  1  0
 17 33  1  0
 18 34  1  0
 19 35  1  0
 20 36  1  0
 21 37  1  0
 22 38  1  0
 23 39  1  0
 24 40  1  0
M  END
$$$$
