
     RDKit          3D

 30 31  0  0  0  0  0  0  0  0999 V2000
   -5.0829    0.7323    1.0375 N   0  0  0  0  0  0  0  0  0  0  0  0
   -3.7668    0.3311    0.6564 C   0  0  0  0  0  0  0  0  0  0  0  0
   -2.6889    0.9795    1.1641 N   0  0  0  0  0  0  0  0  0  0  0  0
   -1.4218    0.6252    0.8251 C   0  0  0  0  0  0  0  0  0  0  0  0
   -0.4581    1.2725    1.3153 O   0  0  0  0  0  0  0  0  0  0  0  0
   -1.2027   -0.4184   -0.0431 N   0  0  0  0  0  0  0  0  0  0  0  0
   -2.2746   -1.0758   -0.5832 C   0  0  0  0  0  0  0  0  0  0  0  0
   -3.5765   -0.7181   -0.2399 C   0  0  0  0  0  0  0  0  0  0  0  0
    0.1603   -0.8187   -0.4518 C   0  0  2  0  0  0  0  0  0  0  0  0
    1.0015   -0.9174    0.6780 O   0  0  0  0  0  0  0  0  0  0  0  0
    2.2604   -0.4124    0.2998 C   0  0  2  0  0  0  0  0  0  0  0  0
    2.9824    0.1321    1.5406 C   0  0  0  0  0  0  0  0  0  0  0  0
    4.2714    0.5786    1.2171 O   0  0  0  0  0  0  0  0  0  0  0  0
    2.0332    0.6591   -0.7640 C   0  0  1  0  0  0  0  0  0  0  0  0
    3.1102    0.7299   -1.6645 O   0  0  0  0  0  0  0  0  0  0  0  0
    0.7592    0.1931   -1.4443 C   0  0  1  0  0  0  0  0  0  0  0  0
    0.9992   -0.3996   -2.7006 O   0  0  0  0  0  0  0  0  0  0  0  0
   -5.9246    0.2463    0.6550 H   0  0  0  0  0  0  0  0  0  0  0  0
   -5.2186    1.5214    1.7077 H   0  0  0  0  0  0  0  0  0  0  0  0
   -2.1304   -1.8863   -1.2879 H   0  0  0  0  0  0  0  0  0  0  0  0
   -4.4192   -1.2471   -0.6669 H   0  0  0  0  0  0  0  0  0  0  0  0
    0.1315   -1.8309   -0.9176 H   0  0  0  0  0  0  0  0  0  0  0  0
    2.8599   -1.2499   -0.1261 H   0  0  0  0  0  0  0  0  0  0  0  0
    2.4067    0.9782    1.9730 H   0  0  0  0  0  0  0  0  0  0  0  0
    3.0398   -0.6626    2.3188 H   0  0  0  0  0  0  0  0  0  0  0  0
    4.8261   -0.2326    1.0764 H   0  0  0  0  0  0  0  0  0  0  0  0
    1.8440    1.6544   -0.2942 H   0  0  0  0  0  0  0  0  0  0  0  0
    3.7807    1.3400   -1.2615 H   0  0  0  0  0  0  0  0  0  0  0  0
    0.0809    1.0618   -1.5971 H   0  0  0  0  0  0  0  0  0  0  0  0
    1.6178   -1.1658   -2.5679 H   0  0  0  0  0  0  0  0  0  0  0  0
  1  2  1  0
  2  3  2  0
  3  4  1  0
  4  5  2  0
  4  6  1  0
  6  7  1  0
  7  8  2  0
  6  9  1  0
  9 10  1  0
 10 11  1  0
 11 12  1  0
 12 13  1  0
 11 14  1  0
 14 15  1  0
 14 16  1  0
 16 17  1  0
  8  2  1  0
 16  9  1  0
  1 18  1  0
  1 19  1  0
  7 20  1  0
  8 21  1  0
  9 22  1  6
 11 23  1  6
 12 24  1  0
 12 25  1  0
 13 26  1  0
 14 27  1  1
 15 28  1  0
 16 29  1  6
 17 30  1  0
M  END
$$$$
