
     RDKit          3D

101106  0  0  0  0  0  0  0  0999 V2000
   -0.0006    0.4041    0.0000 O   0  0  0  0  0  0  0  0  0  0  0  0
    0.0035    0.4041    0.0000 O   0  0  0  0  0  0  0  0  0  0  0  0
    0.0048    0.4041    0.0000 O   0  0  0  0  0  0  0  0  0  0  0  0
   -5.1081    1.8046   -0.4584 N   0  0  0  0  0  0  0  0  0  0  0  0
   -4.2131    1.1019    0.4645 C   0  0  2  0  0  0  0  0  0  0  0  0
   -2.7689    1.6319    0.3651 C   0  0  0  0  0  0  0  0  0  0  0  0
   -1.9677    0.5546   -0.2107 N   0  0  0  0  0  0  0  0  0  0  0  0
   -2.6940   -0.6802   -0.4484 C   0  0  0  0  0  0  0  0  0  0  0  0
   -4.0800   -0.3706    0.0738 C   0  0  0  0  0  0  0  0  0  0  0  0
   -4.7272   -1.4027    0.9904 C   0  0  0  0  0  0  0  0  0  0  0  0
   -5.2753   -1.1742   -0.4148 C   0  0  0  0  0  0  0  0  0  0  0  0
   -0.5833    0.7119   -0.5453 C   0  0  0  0  0  0  0  0  0  0  0  0
   -0.2405    1.4358   -1.6865 C   0  0  0  0  0  0  0  0  0  0  0  0
   -1.2086    1.9598   -2.4802 F   0  0  0  0  0  0  0  0  0  0  0  0
    1.0932    1.6589   -1.9993 C   0  0  0  0  0  0  0  0  0  0  0  0
    2.1183    1.1073   -1.2110 C   0  0  0  0  0  0  0  0  0  0  0  0
    3.4655    1.3849   -1.5075 C   0  0  0  0  0  0  0  0  0  0  0  0
    3.7551    2.1291   -2.4858 O   0  0  0  0  0  0  0  0  0  0  0  0
    4.4853    0.8479   -0.7055 C   0  0  0  0  0  0  0  0  0  0  0  0
    4.1284   -0.0308    0.3230 C   0  0  0  0  0  0  0  0  0  0  0  0
    2.8258   -0.3812    0.5546 N   0  0  0  0  0  0  0  0  0  0  0  0
    2.6038   -1.4816    1.5123 C   0  0  2  0  0  0  0  0  0  0  0  0
    3.4041   -2.7546    1.2147 C   0  0  0  0  0  0  0  0  0  0  0  0
    1.9176   -2.7219    0.9377 C   0  0  2  0  0  0  0  0  0  0  0  0
    1.6270   -2.6687   -0.4152 F   0  0  0  0  0  0  0  0  0  0  0  0
    1.7972    0.2760   -0.1005 C   0  0  0  0  0  0  0  0  0  0  0  0
    0.4203    0.1656    0.2790 C   0  0  0  0  0  0  0  0  0  0  0  0
   -0.1085   -0.4296    1.8605 Cl  0  0  0  0  0  0  0  0  0  0  0  0
    5.9235    1.1563   -0.9344 C   0  0  0  0  0  0  0  0  0  0  0  0
    6.9023    0.5534   -0.1478 O   0  0  0  0  0  0  0  0  0  0  0  0
    6.2777    1.9656   -1.8338 O   0  0  0  0  0  0  0  0  0  0  0  0
   -5.2278   -1.2241    0.5862 N   0  0  0  0  0  0  0  0  0  0  0  0
   -4.3020   -0.6647   -0.4019 C   0  0  2  0  0  0  0  0  0  0  0  0
   -2.9146   -1.3313   -0.3175 C   0  0  0  0  0  0  0  0  0  0  0  0
   -1.9908   -0.3117    0.1735 N   0  0  0  0  0  0  0  0  0  0  0  0
   -2.5825    1.0008    0.3639 C   0  0  0  0  0  0  0  0  0  0  0  0
   -4.0099    0.8055   -0.0985 C   0  0  0  0  0  0  0  0  0  0  0  0
   -5.1017    1.7499    0.3802 C   0  0  0  0  0  0  0  0  0  0  0  0
   -4.5840    1.8479   -1.0514 C   0  0  0  0  0  0  0  0  0  0  0  0
   -0.6187   -0.5906    0.4781 C   0  0  0  0  0  0  0  0  0  0  0  0
   -0.3122   -1.2843    1.6480 C   0  0  0  0  0  0  0  0  0  0  0  0
   -1.3009   -1.6648    2.4962 F   0  0  0  0  0  0  0  0  0  0  0  0
    1.0023   -1.6246    1.9359 C   0  0  0  0  0  0  0  0  0  0  0  0
    2.0507   -1.2220    1.0900 C   0  0  0  0  0  0  0  0  0  0  0  0
    3.3726   -1.6187    1.3645 C   0  0  0  0  0  0  0  0  0  0  0  0
    3.6183   -2.3349    2.3749 O   0  0  0  0  0  0  0  0  0  0  0  0
    4.4137   -1.2316    0.5066 C   0  0  0  0  0  0  0  0  0  0  0  0
    4.1121   -0.3756   -0.5596 C   0  0  0  0  0  0  0  0  0  0  0  0
    2.8440    0.0924   -0.7743 N   0  0  0  0  0  0  0  0  0  0  0  0
    2.7013    1.1579   -1.7851 C   0  0  2  0  0  0  0  0  0  0  0  0
    3.6337    2.3573   -1.5804 C   0  0  0  0  0  0  0  0  0  0  0  0
    2.1611    2.4897   -1.2616 C   0  0  2  0  0  0  0  0  0  0  0  0
    1.9111    2.5371    0.0996 F   0  0  0  0  0  0  0  0  0  0  0  0
    1.7774   -0.4221   -0.0557 C   0  0  0  0  0  0  0  0  0  0  0  0
    0.4065   -0.1928   -0.4026 C   0  0  0  0  0  0  0  0  0  0  0  0
   -0.1124    0.3696   -1.9993 Cl  0  0  0  0  0  0  0  0  0  0  0  0
    5.8187   -1.6772    0.7183 C   0  0  0  0  0  0  0  0  0  0  0  0
    6.1423   -2.5592    1.7463 O   0  0  0  0  0  0  0  0  0  0  0  0
    6.7380   -1.2624   -0.0389 O   0  0  0  0  0  0  0  0  0  0  0  0
   -0.7827   -0.2032    0.0000 H   0  0  0  0  0  0  0  0  0  0  0  0
    0.7833   -0.2009    0.0000 H   0  0  0  0  0  0  0  0  0  0  0  0
   -0.7847   -0.1954    0.0000 H   0  0  0  0  0  0  0  0  0  0  0  0
    0.7813   -0.2087    0.0000 H   0  0  0  0  0  0  0  0  0  0  0  0
    0.7806   -0.2113    0.0000 H   0  0  0  0  0  0  0  0  0  0  0  0
   -0.7854   -0.1928    0.0000 H   0  0  0  0  0  0  0  0  0  0  0  0
   -4.7084    1.7716   -1.4254 H   0  0  0  0  0  0  0  0  0  0  0  0
   -5.1567    2.8093   -0.1718 H   0  0  0  0  0  0  0  0  0  0  0  0
   -4.5906    1.2132    1.5054 H   0  0  0  0  0  0  0  0  0  0  0  0
   -2.3803    1.8769    1.3771 H   0  0  0  0  0  0  0  0  0  0  0  0
   -2.7022    2.5404   -0.2721 H   0  0  0  0  0  0  0  0  0  0  0  0
   -2.7237   -0.8948   -1.5382 H   0  0  0  0  0  0  0  0  0  0  0  0
   -2.2158   -1.5200    0.0996 H   0  0  0  0  0  0  0  0  0  0  0  0
   -4.2028   -2.3765    1.0945 H   0  0  0  0  0  0  0  0  0  0  0  0
   -5.4002   -1.0115    1.7829 H   0  0  0  0  0  0  0  0  0  0  0  0
   -6.2472   -0.6373   -0.4289 H   0  0  0  0  0  0  0  0  0  0  0  0
   -5.0380   -1.9936   -1.1263 H   0  0  0  0  0  0  0  0  0  0  0  0
    1.3207    2.2666   -2.8669 H   0  0  0  0  0  0  0  0  0  0  0  0
    4.9132   -0.4814    0.9206 H   0  0  0  0  0  0  0  0  0  0  0  0
    2.4985   -1.2405    2.5915 H   0  0  0  0  0  0  0  0  0  0  0  0
    3.6728   -3.3531    2.1104 H   0  0  0  0  0  0  0  0  0  0  0  0
    4.0234   -2.7595    0.2920 H   0  0  0  0  0  0  0  0  0  0  0  0
    1.2829   -3.3150    1.6289 H   0  0  0  0  0  0  0  0  0  0  0  0
    7.8844    0.7560   -0.2922 H   0  0  0  0  0  0  0  0  0  0  0  0
   -4.7918   -1.1805    1.5370 H   0  0  0  0  0  0  0  0  0  0  0  0
   -5.3857   -2.2326    0.3582 H   0  0  0  0  0  0  0  0  0  0  0  0
   -4.7264   -0.7921   -1.4227 H   0  0  0  0  0  0  0  0  0  0  0  0
   -2.5885   -1.6659   -1.3259 H   0  0  0  0  0  0  0  0  0  0  0  0
   -2.9152   -2.2079    0.3661 H   0  0  0  0  0  0  0  0  0  0  0  0
   -2.5524    1.2739    1.4404 H   0  0  0  0  0  0  0  0  0  0  0  0
   -2.0433    1.7582   -0.2440 H   0  0  0  0  0  0  0  0  0  0  0  0
   -6.1209    1.3150    0.4534 H   0  0  0  0  0  0  0  0  0  0  0  0
   -4.7593    2.5774    1.0375 H   0  0  0  0  0  0  0  0  0  0  0  0
   -5.3201    1.4854   -1.8002 H   0  0  0  0  0  0  0  0  0  0  0  0
   -3.9699    2.7571   -1.2254 H   0  0  0  0  0  0  0  0  0  0  0  0
    1.1965   -2.2055    2.8294 H   0  0  0  0  0  0  0  0  0  0  0  0
    4.9180   -0.0389   -1.2029 H   0  0  0  0  0  0  0  0  0  0  0  0
    2.5372    0.8725   -2.8460 H   0  0  0  0  0  0  0  0  0  0  0  0
    3.9311    2.8777   -2.5150 H   0  0  0  0  0  0  0  0  0  0  0  0
    4.2801    2.3479   -0.6766 H   0  0  0  0  0  0  0  0  0  0  0  0
    1.5666    3.1071   -1.9669 H   0  0  0  0  0  0  0  0  0  0  0  0
    7.0977   -2.8641    1.8898 H   0  0  0  0  0  0  0  0  0  0  0  0
  4  5  1  0
  5  6  1  0
  6  7  1  0
  7  8  1  0
  8  9  1  0
  9 10  1  0
 10 11  1  0
  7 12  1  0
 12 13  2  0
 13 14  1  0
 13 15  1  0
 15 16  2  0
 16 17  1  0
 17 18  2  0
 17 19  1  0
 19 20  2  0
 20 21  1  0
 21 22  1  0
 22 23  1  0
 23 24  1  0
 24 25  1  0
 21 26  1  0
 26 27  2  0
 27 28  1  0
 19 29  1  0
 29 30  1  0
 29 31  2  0
 32 33  1  0
 33 34  1  0
 34 35  1  0
 35 36  1  0
 36 37  1  0
 37 38  1  0
 38 39  1  0
 35 40  1  0
 40 41  2  0
 41 42  1  0
 41 43  1  0
 43 44  2  0
 44 45  1  0
 45 46  2  0
 45 47  1  0
 47 48  2  0
 48 49  1  0
 49 50  1  0
 50 51  1  0
 51 52  1  0
 52 53  1  0
 49 54  1  0
 54 55  2  0
 55 56  1  0
 47 57  1  0
 57 58  1  0
 57 59  2  0
  9  5  1  0
 11  9  1  0
 27 12  1  0
 37 33  1  0
 39 37  1  0
 55 40  1  0
 26 16  1  0
 54 44  1  0
 24 22  1  0
 52 50  1  0
  1 60  1  0
  1 61  1  0
  2 62  1  0
  2 63  1  0
  3 64  1  0
  3 65  1  0
  4 66  1  0
  4 67  1  0
  5 68  1  1
  6 69  1  0
  6 70  1  0
  8 71  1  0
  8 72  1  0
 10 73  1  0
 10 74  1  0
 11 75  1  0
 11 76  1  0
 15 77  1  0
 20 78  1  0
 22 79  1  1
 23 80  1  0
 23 81  1  0
 24 82  1  1
 30 83  1  0
 32 84  1  0
 32 85  1  0
 33 86  1  6
 34 87  1  0
 34 88  1  0
 36 89  1  0
 36 90  1  0
 38 91  1  0
 38 92  1  0
 39 93  1  0
 39 94  1  0
 43 95  1  0
 48 96  1  0
 50 97  1  6
 51 98  1  0
 51 99  1  0
 52100  1  6
 58101  1  0
M  END
$$$$
