
     RDKit          3D

 48 50  0  0  0  0  0  0  0  0999 V2000
   -5.2593    3.3418    0.0512 O   0  0  0  0  0  0  0  0  0  0  0  0
   -4.1869    3.5558   -0.8108 C   0  0  0  0  0  0  0  0  0  0  0  0
   -4.0453    4.6774   -1.3677 O   0  0  0  0  0  0  0  0  0  0  0  0
   -3.2000    2.4542   -1.0774 C   0  0  0  0  0  0  0  0  0  0  0  0
   -2.4932    2.0407    0.2278 C   0  0  0  0  0  0  0  0  0  0  0  0
   -1.5123    0.8917   -0.0252 C   0  0  0  0  0  0  0  0  0  0  0  0
   -2.2003   -0.2019   -0.7202 N   0  0  0  0  0  0  0  0  0  0  0  0
   -2.9142    0.1049   -1.9636 C   0  0  0  0  0  0  0  0  0  0  0  0
   -3.9066    1.2463   -1.7224 C   0  0  0  0  0  0  0  0  0  0  0  0
   -2.2187   -1.5306   -0.1685 C   0  0  0  0  0  0  0  0  0  0  0  0
   -1.0161   -2.2190    0.1057 C   0  0  0  0  0  0  0  0  0  0  0  0
    0.2469   -1.6440   -0.2675 N   0  0  0  0  0  0  0  0  0  0  0  0
    1.4009   -1.6502    0.5853 C   0  0  0  0  0  0  0  0  0  0  0  0
    1.3242   -2.1216    1.7528 O   0  0  0  0  0  0  0  0  0  0  0  0
    2.6262   -1.0674    0.1173 N   0  0  0  0  0  0  0  0  0  0  0  0
    3.8345   -1.0160    0.8926 C   0  0  0  0  0  0  0  0  0  0  0  0
    3.9772   -1.7653    1.8971 O   0  0  0  0  0  0  0  0  0  0  0  0
    4.9498   -0.1335    0.4867 C   0  0  0  0  0  0  0  0  0  0  0  0
    6.2612   -0.6398    0.5136 C   0  0  0  0  0  0  0  0  0  0  0  0
    7.3393    0.1580    0.1213 C   0  0  0  0  0  0  0  0  0  0  0  0
    8.5971   -0.3485    0.1413 F   0  0  0  0  0  0  0  0  0  0  0  0
    7.1214    1.4737   -0.2924 C   0  0  0  0  0  0  0  0  0  0  0  0
    8.1672    2.2495   -0.6712 F   0  0  0  0  0  0  0  0  0  0  0  0
    5.8264    1.9966   -0.3043 C   0  0  0  0  0  0  0  0  0  0  0  0
    4.7379    1.2065    0.0867 C   0  0  0  0  0  0  0  0  0  0  0  0
    3.1479    1.9639    0.1422 Cl  0  0  0  0  0  0  0  0  0  0  0  0
   -1.0710   -3.5048    0.6718 C   0  0  0  0  0  0  0  0  0  0  0  0
   -2.3014   -4.0925    0.9761 C   0  0  0  0  0  0  0  0  0  0  0  0
   -2.3432   -5.3337    1.5202 F   0  0  0  0  0  0  0  0  0  0  0  0
   -3.4883   -3.4084    0.7088 C   0  0  0  0  0  0  0  0  0  0  0  0
   -3.4484   -2.1352    0.1372 C   0  0  0  0  0  0  0  0  0  0  0  0
   -5.9304    4.0771    0.2382 H   0  0  0  0  0  0  0  0  0  0  0  0
   -2.4301    2.8317   -1.7889 H   0  0  0  0  0  0  0  0  0  0  0  0
   -3.2440    1.7124    0.9808 H   0  0  0  0  0  0  0  0  0  0  0  0
   -1.9373    2.9078    0.6468 H   0  0  0  0  0  0  0  0  0  0  0  0
   -0.6666    1.2519   -0.6505 H   0  0  0  0  0  0  0  0  0  0  0  0
   -1.1003    0.5466    0.9485 H   0  0  0  0  0  0  0  0  0  0  0  0
   -3.4589   -0.7870   -2.3432 H   0  0  0  0  0  0  0  0  0  0  0  0
   -2.1790    0.4076   -2.7404 H   0  0  0  0  0  0  0  0  0  0  0  0
   -4.7216    0.8808   -1.0589 H   0  0  0  0  0  0  0  0  0  0  0  0
   -4.3577    1.5474   -2.6931 H   0  0  0  0  0  0  0  0  0  0  0  0
    0.2981   -1.0978   -1.1567 H   0  0  0  0  0  0  0  0  0  0  0  0
    2.6360   -0.6521   -0.8413 H   0  0  0  0  0  0  0  0  0  0  0  0
    6.4479   -1.6610    0.8236 H   0  0  0  0  0  0  0  0  0  0  0  0
    5.6696    3.0246   -0.6062 H   0  0  0  0  0  0  0  0  0  0  0  0
   -0.1617   -4.0635    0.8525 H   0  0  0  0  0  0  0  0  0  0  0  0
   -4.4413   -3.8645    0.9440 H   0  0  0  0  0  0  0  0  0  0  0  0
   -4.3758   -1.6104   -0.0546 H   0  0  0  0  0  0  0  0  0  0  0  0
  1  2  1  0
  2  3  2  0
  2  4  1  0
  4  5  1  0
  5  6  1  0
  6  7  1  0
  7  8  1  0
  8  9  1  0
  7 10  1  0
 10 11  1  0
 11 12  1  0
 12 13  1  0
 13 14  2  0
 13 15  1  0
 15 16  1  0
 16 17  2  0
 16 18  1  0
 18 19  2  0
 19 20  1  0
 20 21  1  0
 20 22  2  0
 22 23  1  0
 22 24  1  0
 24 25  2  0
 25 26  1  0
 11 27  2  0
 27 28  1  0
 28 29  1  0
 28 30  2  0
 30 31  1  0
  9  4  1  0
 31 10  2  0
 25 18  1  0
  1 32  1  0
  4 33  1  0
  5 34  1  0
  5 35  1  0
  6 36  1  0
  6 37  1  0
  8 38  1  0
  8 39  1  0
  9 40  1  0
  9 41  1  0
 12 42  1  0
 15 43  1  0
 19 44  1  0
 24 45  1  0
 27 46  1  0
 30 47  1  0
 31 48  1  0
M  END
$$$$
