
     RDKit          3D

102106  0  0  0  0  0  0  0  0999 V2000
   -7.7196    0.4362   -0.9247 C   0  0  1  0  0  0  0  0  0  0  0  0
   -8.6141   -0.5654   -1.6708 C   0  0  0  0  0  0  0  0  0  0  0  0
   -7.8405   -1.4668   -2.4181 O   0  0  0  0  0  0  0  0  0  0  0  0
   -6.8681   -0.2955   -0.0452 O   0  0  0  0  0  0  0  0  0  0  0  0
   -5.6009    0.2975    0.2168 C   0  0  1  0  0  0  0  0  0  0  0  0
   -4.6737   -0.1729   -0.7501 O   0  0  0  0  0  0  0  0  0  0  0  0
   -3.3392   -0.2112   -0.2594 C   0  0  2  0  0  0  0  0  0  0  0  0
   -2.3864    0.3978   -1.3330 C   0  0  1  0  0  0  0  0  0  0  0  0
   -1.6026    1.6412   -0.8568 C   0  0  0  0  0  0  0  0  0  0  0  0
   -0.9527    1.4096    0.3624 O   0  0  0  0  0  0  0  0  0  0  0  0
   -1.5543   -0.5650   -1.9688 O   0  0  0  0  0  0  0  0  0  0  0  0
   -0.7328   -1.3240   -1.0894 C   0  0  1  0  0  0  0  0  0  0  0  0
    0.4474   -0.5849   -0.8059 O   0  0  0  0  0  0  0  0  0  0  0  0
    1.6121   -1.3967   -0.7644 C   0  0  2  0  0  0  0  0  0  0  0  0
    2.5808   -0.8227    0.2991 C   0  0  1  0  0  0  0  0  0  0  0  0
    1.9674   -0.8466    1.7041 C   0  0  0  0  0  0  0  0  0  0  0  0
    1.7279   -2.1656    2.1107 O   0  0  0  0  0  0  0  0  0  0  0  0
    3.7929   -1.5599    0.3330 O   0  0  0  0  0  0  0  0  0  0  0  0
    4.5022   -1.4570   -0.8914 C   0  0  2  0  0  0  0  0  0  0  0  0
    4.8637   -0.1003   -1.1747 O   0  0  0  0  0  0  0  0  0  0  0  0
    5.7025    0.6936   -0.3778 C   0  0  0  0  0  0  0  0  0  0  0  0
    6.3281    0.2058    0.7842 C   0  0  0  0  0  0  0  0  0  0  0  0
    7.1500    1.0398    1.5496 C   0  0  0  0  0  0  0  0  0  0  0  0
    7.3620    2.3839    1.1595 C   0  0  0  0  0  0  0  0  0  0  0  0
    6.7348    2.8624   -0.0067 C   0  0  0  0  0  0  0  0  0  0  0  0
    5.9154    2.0206   -0.7630 C   0  0  0  0  0  0  0  0  0  0  0  0
    8.1997    3.1898    1.9636 C   0  0  0  0  0  0  0  0  0  0  0  0
    8.4836    4.6311    1.6284 C   0  0  0  0  0  0  0  0  0  0  0  0
    8.7805    2.6237    3.1067 C   0  0  0  0  0  0  0  0  0  0  0  0
    8.5196    1.2882    3.4204 C   0  0  0  0  0  0  0  0  0  0  0  0
    9.0368    0.7711    4.4449 O   0  0  0  0  0  0  0  0  0  0  0  0
    7.7281    0.5568    2.6450 O   0  0  0  0  0  0  0  0  0  0  0  0
    3.6836   -2.0547   -2.0538 C   0  0  2  0  0  0  0  0  0  0  0  0
    4.3951   -1.8781   -3.3223 N   0  0  0  0  0  0  0  0  0  0  0  0
    5.4137   -2.5712   -3.7448 C   0  0  0  0  0  0  0  0  0  0  0  0
    6.0196   -2.2280   -5.0638 C   0  0  0  0  0  0  0  0  0  0  0  0
    5.9466   -3.6399   -3.0183 O   0  0  0  0  0  0  0  0  0  0  0  0
    2.3118   -1.3633   -2.1393 C   0  0  1  0  0  0  0  0  0  0  0  0
    1.5144   -2.0159   -3.0940 O   0  0  0  0  0  0  0  0  0  0  0  0
   -1.4425   -1.7658    0.2220 C   0  0  2  0  0  0  0  0  0  0  0  0
   -1.0456   -3.1409    0.5425 N   0  0  0  0  0  0  0  0  0  0  0  0
   -1.0351   -3.7071    1.7161 C   0  0  0  0  0  0  0  0  0  0  0  0
   -0.5878   -5.1255    1.8240 C   0  0  0  0  0  0  0  0  0  0  0  0
   -1.3955   -3.0279    2.8836 O   0  0  0  0  0  0  0  0  0  0  0  0
   -2.9652   -1.6702    0.0381 C   0  0  1  0  0  0  0  0  0  0  0  0
   -3.6369   -2.0903    1.1981 O   0  0  0  0  0  0  0  0  0  0  0  0
   -5.6414    1.8509    0.2323 C   0  0  2  0  0  0  0  0  0  0  0  0
   -6.5595    2.3152    1.2772 N   0  0  0  0  0  0  0  0  0  0  0  0
   -6.3319    2.3404    2.5596 C   0  0  0  0  0  0  0  0  0  0  0  0
   -7.4033    2.8372    3.4704 C   0  0  0  0  0  0  0  0  0  0  0  0
   -5.1111    1.9431    3.1128 O   0  0  0  0  0  0  0  0  0  0  0  0
   -6.1082    2.4020   -1.1393 C   0  0  1  0  0  0  0  0  0  0  0  0
   -4.9980    2.7478   -1.9287 O   0  0  0  0  0  0  0  0  0  0  0  0
   -6.9625    1.3705   -1.9097 C   0  0  2  0  0  0  0  0  0  0  0  0
   -7.8456    2.0244   -2.7886 O   0  0  0  0  0  0  0  0  0  0  0  0
   -8.3946    1.0635   -0.3006 H   0  0  0  0  0  0  0  0  0  0  0  0
   -9.3518   -0.0360   -2.3171 H   0  0  0  0  0  0  0  0  0  0  0  0
   -9.1994   -1.1445   -0.9250 H   0  0  0  0  0  0  0  0  0  0  0  0
   -7.7332   -1.0735   -3.3230 H   0  0  0  0  0  0  0  0  0  0  0  0
   -5.3217   -0.0562    1.2345 H   0  0  0  0  0  0  0  0  0  0  0  0
   -3.2113    0.3682    0.6859 H   0  0  0  0  0  0  0  0  0  0  0  0
   -3.0335    0.7888   -2.1490 H   0  0  0  0  0  0  0  0  0  0  0  0
   -2.3128    2.4890   -0.7319 H   0  0  0  0  0  0  0  0  0  0  0  0
   -0.8591    1.9252   -1.6350 H   0  0  0  0  0  0  0  0  0  0  0  0
   -0.4513    2.2401    0.5708 H   0  0  0  0  0  0  0  0  0  0  0  0
   -0.5079   -2.2496   -1.6682 H   0  0  0  0  0  0  0  0  0  0  0  0
    1.3941   -2.4558   -0.4864 H   0  0  0  0  0  0  0  0  0  0  0  0
    2.7810    0.2493    0.0681 H   0  0  0  0  0  0  0  0  0  0  0  0
    2.6790   -0.3651    2.4121 H   0  0  0  0  0  0  0  0  0  0  0  0
    1.0221   -0.2619    1.7219 H   0  0  0  0  0  0  0  0  0  0  0  0
    1.3498   -2.1065    3.0262 H   0  0  0  0  0  0  0  0  0  0  0  0
    5.4348   -2.0506   -0.7929 H   0  0  0  0  0  0  0  0  0  0  0  0
    6.1859   -0.8172    1.1044 H   0  0  0  0  0  0  0  0  0  0  0  0
    6.8692    3.8821   -0.3423 H   0  0  0  0  0  0  0  0  0  0  0  0
    5.4382    2.4038   -1.6562 H   0  0  0  0  0  0  0  0  0  0  0  0
    9.1605    5.1007    2.3737 H   0  0  0  0  0  0  0  0  0  0  0  0
    7.5351    5.2080    1.6156 H   0  0  0  0  0  0  0  0  0  0  0  0
    8.9716    4.6965    0.6333 H   0  0  0  0  0  0  0  0  0  0  0  0
    9.4285    3.2098    3.7481 H   0  0  0  0  0  0  0  0  0  0  0  0
    3.5039   -3.1368   -1.8657 H   0  0  0  0  0  0  0  0  0  0  0  0
    6.9641   -2.7928   -5.2110 H   0  0  0  0  0  0  0  0  0  0  0  0
    6.2428   -1.1410   -5.1058 H   0  0  0  0  0  0  0  0  0  0  0  0
    5.3116   -2.4893   -5.8779 H   0  0  0  0  0  0  0  0  0  0  0  0
    5.5710   -3.9600   -2.1361 H   0  0  0  0  0  0  0  0  0  0  0  0
    2.4533   -0.2943   -2.4323 H   0  0  0  0  0  0  0  0  0  0  0  0
    1.7703   -1.6551   -3.9828 H   0  0  0  0  0  0  0  0  0  0  0  0
   -1.1241   -1.0816    1.0353 H   0  0  0  0  0  0  0  0  0  0  0  0
    0.5095   -5.1810    1.6653 H   0  0  0  0  0  0  0  0  0  0  0  0
   -0.8289   -5.5279    2.8303 H   0  0  0  0  0  0  0  0  0  0  0  0
   -1.1017   -5.7449    1.0588 H   0  0  0  0  0  0  0  0  0  0  0  0
   -1.6880   -2.0608    2.9051 H   0  0  0  0  0  0  0  0  0  0  0  0
   -3.2689   -2.3022   -0.8328 H   0  0  0  0  0  0  0  0  0  0  0  0
   -3.8086   -3.0632    1.1006 H   0  0  0  0  0  0  0  0  0  0  0  0
   -4.6293    2.2597    0.4408 H   0  0  0  0  0  0  0  0  0  0  0  0
   -7.1442    2.6115    4.5262 H   0  0  0  0  0  0  0  0  0  0  0  0
   -7.5126    3.9354    3.3515 H   0  0  0  0  0  0  0  0  0  0  0  0
   -8.3676    2.3435    3.2259 H   0  0  0  0  0  0  0  0  0  0  0  0
   -4.3242    1.6254    2.5638 H   0  0  0  0  0  0  0  0  0  0  0  0
   -6.7226    3.3184   -0.9662 H   0  0  0  0  0  0  0  0  0  0  0  0
   -4.6470    3.6066   -1.5746 H   0  0  0  0  0  0  0  0  0  0  0  0
   -6.2862    0.7404   -2.5281 H   0  0  0  0  0  0  0  0  0  0  0  0
   -8.5112    2.5145   -2.2382 H   0  0  0  0  0  0  0  0  0  0  0  0
  1  2  1  0
  2  3  1  0
  1  4  1  0
  4  5  1  0
  5  6  1  0
  6  7  1  0
  7  8  1  0
  8  9  1  0
  9 10  1  0
  8 11  1  0
 11 12  1  0
 12 13  1  0
 13 14  1  0
 14 15  1  0
 15 16  1  0
 16 17  1  0
 15 18  1  0
 18 19  1  0
 19 20  1  0
 20 21  1  0
 21 22  2  0
 22 23  1  0
 23 24  2  0
 24 25  1  0
 25 26  2  0
 24 27  1  0
 27 28  1  0
 27 29  2  0
 29 30  1  0
 30 31  2  0
 30 32  1  0
 19 33  1  0
 33 34  1  0
 34 35  2  3
 35 36  1  0
 35 37  1  0
 33 38  1  0
 38 39  1  0
 12 40  1  0
 40 41  1  0
 41 42  2  3
 42 43  1  0
 42 44  1  0
 40 45  1  0
 45 46  1  0
  5 47  1  0
 47 48  1  0
 48 49  2  3
 49 50  1  0
 49 51  1  0
 47 52  1  0
 52 53  1  0
 52 54  1  0
 54 55  1  0
 54  1  1  0
 45  7  1  0
 38 14  1  0
 26 21  1  0
 32 23  1  0
  1 56  1  1
  2 57  1  0
  2 58  1  0
  3 59  1  0
  5 60  1  1
  7 61  1  1
  8 62  1  6
  9 63  1  0
  9 64  1  0
 10 65  1  0
 12 66  1  6
 14 67  1  1
 15 68  1  6
 16 69  1  0
 16 70  1  0
 17 71  1  0
 19 72  1  1
 22 73  1  0
 25 74  1  0
 26 75  1  0
 28 76  1  0
 28 77  1  0
 28 78  1  0
 29 79  1  0
 33 80  1  1
 36 81  1  0
 36 82  1  0
 36 83  1  0
 37 84  1  0
 38 85  1  6
 39 86  1  0
 40 87  1  1
 43 88  1  0
 43 89  1  0
 43 90  1  0
 44 91  1  0
 45 92  1  6
 46 93  1  0
 47 94  1  1
 50 95  1  0
 50 96  1  0
 50 97  1  0
 51 98  1  0
 52 99  1  1
 53100  1  0
 54101  1  6
 55102  1  0
M  END
$$$$
