
     RDKit          3D

180185  0  0  0  0  0  0  0  0999 V2000
    3.7273   -0.9558    1.5086 C   0  0  2  0  0  0  0  0  0  0  0  0
    3.5522   -0.0631    2.7510 C   0  0  0  0  0  0  0  0  0  0  0  0
    2.9178    1.5944    2.2992 S   0  0  0  0  0  0  0  0  0  0  0  0
    0.8539    1.1347    2.6369 S   0  0  0  0  0  0  0  0  0  0  0  0
    0.4014    1.0198    0.8666 C   0  0  0  0  0  0  0  0  0  0  0  0
    0.3180    2.4080    0.2142 C   0  0  2  0  0  0  0  0  0  0  0  0
   -0.6122    3.2966    0.9226 N   0  0  0  0  0  0  0  0  0  0  0  0
   -2.0386    3.1147    0.9819 C   0  0  0  0  0  0  0  0  0  0  0  0
   -2.5311    1.9657    0.8474 O   0  0  0  0  0  0  0  0  0  0  0  0
   -2.9807    4.2636    1.2781 C   0  0  2  0  0  0  0  0  0  0  0  0
   -2.4125    5.6647    0.9654 C   0  0  0  0  0  0  0  0  0  0  0  0
   -1.8823    5.7707   -0.4490 C   0  0  0  0  0  0  0  0  0  0  0  0
   -2.7297    5.5559   -1.5494 C   0  0  0  0  0  0  0  0  0  0  0  0
   -2.2218    5.5948   -2.8518 C   0  0  0  0  0  0  0  0  0  0  0  0
   -0.8650    5.8615   -3.0720 C   0  0  0  0  0  0  0  0  0  0  0  0
   -0.3471    5.8985   -4.3659 O   0  0  0  0  0  0  0  0  0  0  0  0
   -0.0231    6.1012   -1.9839 C   0  0  0  0  0  0  0  0  0  0  0  0
   -0.5281    6.0634   -0.6805 C   0  0  0  0  0  0  0  0  0  0  0  0
   -3.4643    4.2003    2.6620 N   0  0  0  0  0  0  0  0  0  0  0  0
   -2.6680    3.7386    3.7639 C   0  0  0  0  0  0  0  0  0  0  0  0
   -1.4301    3.9802    3.7872 O   0  0  0  0  0  0  0  0  0  0  0  0
   -3.3290    2.9336    4.8643 C   0  0  2  0  0  0  0  0  0  0  0  0
   -2.3197    2.3616    5.8900 C   0  0  0  0  0  0  0  0  0  0  0  0
   -1.7670    3.4175    6.8617 C   0  0  0  0  0  0  0  0  0  0  0  0
   -2.8184    3.8944    7.8162 C   0  0  0  0  0  0  0  0  0  0  0  0
   -3.4457    5.1176    7.6018 O   0  0  0  0  0  0  0  0  0  0  0  0
   -3.1538    3.1766    8.7968 O   0  0  0  0  0  0  0  0  0  0  0  0
   -4.0881    1.8281    4.2655 N   0  0  0  0  0  0  0  0  0  0  0  0
   -5.1767    1.1796    4.9506 C   0  0  0  0  0  0  0  0  0  0  0  0
   -5.5583    1.6165    6.0706 O   0  0  0  0  0  0  0  0  0  0  0  0
   -5.9144    0.0033    4.3429 C   0  0  2  0  0  0  0  0  0  0  0  0
   -5.0135   -0.9624    3.5526 C   0  0  0  0  0  0  0  0  0  0  0  0
   -3.6782   -1.6390    4.6038 S   0  0  0  0  0  0  0  0  0  0  0  0
   -2.1161   -1.2062    3.2117 S   0  0  0  0  0  0  0  0  0  0  0  0
   -2.2545   -2.8178    2.3578 C   0  0  0  0  0  0  0  0  0  0  0  0
   -1.0698   -3.0310    1.3998 C   0  0  2  0  0  0  0  0  0  0  0  0
   -1.2608   -4.2524    0.6062 N   0  0  0  0  0  0  0  0  0  0  0  0
   -0.3118   -4.7269   -0.3648 C   0  0  0  0  0  0  0  0  0  0  0  0
    0.0539   -5.9326   -0.3098 O   0  0  0  0  0  0  0  0  0  0  0  0
    0.2080   -3.8687   -1.4967 C   0  0  2  0  0  0  0  0  0  0  0  0
    1.2893   -2.8845   -1.0476 C   0  0  0  0  0  0  0  0  0  0  0  0
   -0.8941   -3.1594   -2.1505 N   0  0  0  0  0  0  0  0  0  0  0  0
   -1.3944   -3.4213   -3.4762 C   0  0  0  0  0  0  0  0  0  0  0  0
   -2.5717   -3.0673   -3.7491 O   0  0  0  0  0  0  0  0  0  0  0  0
   -0.5848   -4.0818   -4.5777 C   0  0  2  0  0  0  0  0  0  0  0  0
   -0.5134   -5.6018   -4.4160 C   0  0  0  0  0  0  0  0  0  0  0  0
    0.9325   -5.9938   -4.7171 C   0  0  0  0  0  0  0  0  0  0  0  0
    1.7501   -4.7056   -4.7079 C   0  0  0  0  0  0  0  0  0  0  0  0
    0.7956   -3.6099   -4.6417 N   0  0  0  0  0  0  0  0  0  0  0  0
    1.2125   -2.2408   -4.8382 C   0  0  0  0  0  0  0  0  0  0  0  0
    2.4391   -1.9600   -4.7535 O   0  0  0  0  0  0  0  0  0  0  0  0
    0.2176   -1.1188   -5.0643 C   0  0  2  0  0  0  0  0  0  0  0  0
    0.6146   -0.1864   -6.2286 C   0  0  0  0  0  0  0  0  0  0  0  0
    1.8399    0.6404   -5.9579 C   0  0  0  0  0  0  0  0  0  0  0  0
    3.0758    0.3318   -6.6020 N   0  0  0  0  0  0  0  0  0  0  0  0
    1.7727    1.6246   -5.1741 O   0  0  0  0  0  0  0  0  0  0  0  0
    0.0253   -0.3678   -3.8212 N   0  0  0  0  0  0  0  0  0  0  0  0
   -1.2253    0.2502   -3.4946 C   0  0  0  0  0  0  0  0  0  0  0  0
   -2.0275    0.5778   -4.4114 O   0  0  0  0  0  0  0  0  0  0  0  0
   -1.5662    0.5229   -2.0543 C   0  0  2  0  0  0  0  0  0  0  0  0
   -3.0195    0.1235   -1.7194 C   0  0  0  0  0  0  0  0  0  0  0  0
   -4.2548    1.3370   -2.3124 S   0  0  0  0  0  0  0  0  0  0  0  0
   -5.9192    0.2932   -1.4746 S   0  0  0  0  0  0  0  0  0  0  0  0
   -5.8442    1.2052    0.1031 C   0  0  0  0  0  0  0  0  0  0  0  0
   -7.0573    0.8713    0.9843 C   0  0  2  0  0  0  0  0  0  0  0  0
   -8.2769    1.4586    0.4253 N   0  0  0  0  0  0  0  0  0  0  0  0
   -6.8295    1.3497    2.3968 C   0  0  0  0  0  0  0  0  0  0  0  0
   -6.4856    2.5427    2.6133 O   0  0  0  0  0  0  0  0  0  0  0  0
   -7.0240    0.4507    3.4952 N   0  0  0  0  0  0  0  0  0  0  0  0
   -1.2933    1.9250   -1.7261 N   0  0  0  0  0  0  0  0  0  0  0  0
   -0.0038    2.3325   -1.2605 C   0  0  0  0  0  0  0  0  0  0  0  0
    0.8699    2.6714   -2.1020 O   0  0  0  0  0  0  0  0  0  0  0  0
    0.2114   -3.1135    2.1914 C   0  0  0  0  0  0  0  0  0  0  0  0
    0.8971   -2.0703    2.3427 O   0  0  0  0  0  0  0  0  0  0  0  0
    0.6071   -4.3375    2.8322 N   0  0  0  0  0  0  0  0  0  0  0  0
    1.8607   -4.4742    3.5881 C   0  0  1  0  0  0  0  0  0  0  0  0
    1.5998   -5.0499    5.0013 C   0  0  1  0  0  0  0  0  0  0  0  0
    0.6848   -4.1341    5.8310 C   0  0  0  0  0  0  0  0  0  0  0  0
    1.0907   -6.3622    4.9449 O   0  0  0  0  0  0  0  0  0  0  0  0
    2.8294   -5.3474    2.8185 C   0  0  0  0  0  0  0  0  0  0  0  0
    2.3860   -6.3582    2.2089 O   0  0  0  0  0  0  0  0  0  0  0  0
    4.2446   -5.0823    2.7724 N   0  0  0  0  0  0  0  0  0  0  0  0
    4.9312   -4.0554    3.5589 C   0  0  0  0  0  0  0  0  0  0  0  0
    5.0355   -2.7476    2.8191 C   0  0  0  0  0  0  0  0  0  0  0  0
    5.9943   -1.9775    3.0922 O   0  0  0  0  0  0  0  0  0  0  0  0
    4.0340   -2.3449    1.8682 N   0  0  0  0  0  0  0  0  0  0  0  0
    4.7446   -0.4081    0.5433 C   0  0  0  0  0  0  0  0  0  0  0  0
    5.9130   -0.1427    0.9375 O   0  0  0  0  0  0  0  0  0  0  0  0
    4.3684   -0.1557   -0.8190 N   0  0  0  0  0  0  0  0  0  0  0  0
    5.1435    0.7347   -1.6868 C   0  0  1  0  0  0  0  0  0  0  0  0
    4.6860    0.5779   -3.1493 C   0  0  0  0  0  0  0  0  0  0  0  0
    5.5525    1.3744   -4.0903 C   0  0  0  0  0  0  0  0  0  0  0  0
    5.1457    2.6457   -4.5295 C   0  0  0  0  0  0  0  0  0  0  0  0
    5.9632    3.3894   -5.3852 C   0  0  0  0  0  0  0  0  0  0  0  0
    7.1994    2.8787   -5.7980 C   0  0  0  0  0  0  0  0  0  0  0  0
    8.0082    3.6342   -6.6445 O   0  0  0  0  0  0  0  0  0  0  0  0
    7.6150    1.6155   -5.3530 C   0  0  0  0  0  0  0  0  0  0  0  0
    6.7971    0.8682   -4.5009 C   0  0  0  0  0  0  0  0  0  0  0  0
    4.9749    2.1563   -1.2247 C   0  0  0  0  0  0  0  0  0  0  0  0
    6.0953    2.9659   -1.0509 O   0  0  0  0  0  0  0  0  0  0  0  0
    3.8214    2.6261   -1.0231 O   0  0  0  0  0  0  0  0  0  0  0  0
    2.7515   -0.9684    0.9884 H   0  0  0  0  0  0  0  0  0  0  0  0
    2.8718   -0.5522    3.4781 H   0  0  0  0  0  0  0  0  0  0  0  0
    4.5259    0.0830    3.2624 H   0  0  0  0  0  0  0  0  0  0  0  0
    1.1427    0.4057    0.3209 H   0  0  0  0  0  0  0  0  0  0  0  0
   -0.5684    0.4919    0.8026 H   0  0  0  0  0  0  0  0  0  0  0  0
    1.3310    2.8590    0.2950 H   0  0  0  0  0  0  0  0  0  0  0  0
   -0.1952    4.1280    1.3954 H   0  0  0  0  0  0  0  0  0  0  0  0
   -3.8655    4.1225    0.6176 H   0  0  0  0  0  0  0  0  0  0  0  0
   -1.6273    5.9264    1.7061 H   0  0  0  0  0  0  0  0  0  0  0  0
   -3.2231    6.4157    1.0919 H   0  0  0  0  0  0  0  0  0  0  0  0
   -3.7800    5.3471   -1.4005 H   0  0  0  0  0  0  0  0  0  0  0  0
   -2.8824    5.4139   -3.6879 H   0  0  0  0  0  0  0  0  0  0  0  0
   -0.9327    5.7313   -5.1749 H   0  0  0  0  0  0  0  0  0  0  0  0
    1.0242    6.3124   -2.1495 H   0  0  0  0  0  0  0  0  0  0  0  0
    0.1431    6.2465    0.1477 H   0  0  0  0  0  0  0  0  0  0  0  0
   -4.4930    4.3012    2.8166 H   0  0  0  0  0  0  0  0  0  0  0  0
   -4.0436    3.6130    5.3764 H   0  0  0  0  0  0  0  0  0  0  0  0
   -1.4744    1.8815    5.3499 H   0  0  0  0  0  0  0  0  0  0  0  0
   -2.8038    1.5577    6.4872 H   0  0  0  0  0  0  0  0  0  0  0  0
   -1.3471    4.2828    6.3091 H   0  0  0  0  0  0  0  0  0  0  0  0
   -0.9358    2.9659    7.4464 H   0  0  0  0  0  0  0  0  0  0  0  0
   -4.1743    5.4432    8.2251 H   0  0  0  0  0  0  0  0  0  0  0  0
   -3.8244    1.5009    3.3104 H   0  0  0  0  0  0  0  0  0  0  0  0
   -6.3487   -0.5825    5.1846 H   0  0  0  0  0  0  0  0  0  0  0  0
   -4.6213   -0.4716    2.6401 H   0  0  0  0  0  0  0  0  0  0  0  0
   -5.6279   -1.8205    3.2054 H   0  0  0  0  0  0  0  0  0  0  0  0
   -3.2042   -2.8290    1.7825 H   0  0  0  0  0  0  0  0  0  0  0  0
   -2.2851   -3.6392    3.1063 H   0  0  0  0  0  0  0  0  0  0  0  0
   -1.0397   -2.1581    0.7169 H   0  0  0  0  0  0  0  0  0  0  0  0
   -1.9656   -4.9487    0.9394 H   0  0  0  0  0  0  0  0  0  0  0  0
    0.6978   -4.5515   -2.2104 H   0  0  0  0  0  0  0  0  0  0  0  0
    1.7931   -2.4567   -1.9385 H   0  0  0  0  0  0  0  0  0  0  0  0
    2.0537   -3.4112   -0.4408 H   0  0  0  0  0  0  0  0  0  0  0  0
    0.8658   -2.0440   -0.4675 H   0  0  0  0  0  0  0  0  0  0  0  0
   -1.4526   -2.5008   -1.5637 H   0  0  0  0  0  0  0  0  0  0  0  0
   -1.0660   -3.8666   -5.5591 H   0  0  0  0  0  0  0  0  0  0  0  0
   -1.2085   -6.1071   -5.1222 H   0  0  0  0  0  0  0  0  0  0  0  0
   -0.7817   -5.9218   -3.3862 H   0  0  0  0  0  0  0  0  0  0  0  0
    1.3138   -6.7113   -3.9594 H   0  0  0  0  0  0  0  0  0  0  0  0
    0.9900   -6.4673   -5.7198 H   0  0  0  0  0  0  0  0  0  0  0  0
    2.3565   -4.6292   -5.6366 H   0  0  0  0  0  0  0  0  0  0  0  0
    2.4251   -4.6725   -3.8268 H   0  0  0  0  0  0  0  0  0  0  0  0
   -0.7522   -1.5657   -5.3630 H   0  0  0  0  0  0  0  0  0  0  0  0
   -0.2297    0.5031   -6.4466 H   0  0  0  0  0  0  0  0  0  0  0  0
    0.7684   -0.7956   -7.1459 H   0  0  0  0  0  0  0  0  0  0  0  0
    3.1599   -0.5004   -7.2261 H   0  0  0  0  0  0  0  0  0  0  0  0
    3.9076    0.9488   -6.4774 H   0  0  0  0  0  0  0  0  0  0  0  0
    0.7777   -0.3791   -3.0943 H   0  0  0  0  0  0  0  0  0  0  0  0
   -0.9157   -0.1258   -1.4311 H   0  0  0  0  0  0  0  0  0  0  0  0
   -3.2497   -0.8670   -2.1663 H   0  0  0  0  0  0  0  0  0  0  0  0
   -3.1150    0.0081   -0.6205 H   0  0  0  0  0  0  0  0  0  0  0  0
   -4.9159    0.9059    0.6306 H   0  0  0  0  0  0  0  0  0  0  0  0
   -5.8015    2.2993   -0.0924 H   0  0  0  0  0  0  0  0  0  0  0  0
   -7.1740   -0.2356    1.0049 H   0  0  0  0  0  0  0  0  0  0  0  0
   -8.2082    2.5026    0.4634 H   0  0  0  0  0  0  0  0  0  0  0  0
   -9.0870    1.1794    1.0273 H   0  0  0  0  0  0  0  0  0  0  0  0
   -7.8505   -0.1864    3.4377 H   0  0  0  0  0  0  0  0  0  0  0  0
   -1.8518    2.6627   -2.2133 H   0  0  0  0  0  0  0  0  0  0  0  0
    0.0097   -5.1830    2.6936 H   0  0  0  0  0  0  0  0  0  0  0  0
    2.3135   -3.4718    3.7248 H   0  0  0  0  0  0  0  0  0  0  0  0
    2.5736   -5.0982    5.5350 H   0  0  0  0  0  0  0  0  0  0  0  0
    0.5463   -4.5632    6.8459 H   0  0  0  0  0  0  0  0  0  0  0  0
    1.1422   -3.1267    5.9337 H   0  0  0  0  0  0  0  0  0  0  0  0
   -0.3114   -4.0280    5.3512 H   0  0  0  0  0  0  0  0  0  0  0  0
    0.1367   -6.3129    4.6755 H   0  0  0  0  0  0  0  0  0  0  0  0
    4.8334   -5.6853    2.1530 H   0  0  0  0  0  0  0  0  0  0  0  0
    4.4300   -3.9010    4.5356 H   0  0  0  0  0  0  0  0  0  0  0  0
    5.9587   -4.4159    3.7830 H   0  0  0  0  0  0  0  0  0  0  0  0
    3.4153   -3.0770    1.4576 H   0  0  0  0  0  0  0  0  0  0  0  0
    3.4483   -0.5181   -1.1590 H   0  0  0  0  0  0  0  0  0  0  0  0
    6.2184    0.4497   -1.6221 H   0  0  0  0  0  0  0  0  0  0  0  0
    3.6213    0.8832   -3.2477 H   0  0  0  0  0  0  0  0  0  0  0  0
    4.7357   -0.4965   -3.4349 H   0  0  0  0  0  0  0  0  0  0  0  0
    4.1952    3.0580   -4.2120 H   0  0  0  0  0  0  0  0  0  0  0  0
    5.6381    4.3658   -5.7236 H   0  0  0  0  0  0  0  0  0  0  0  0
    8.9098    3.2913   -6.9582 H   0  0  0  0  0  0  0  0  0  0  0  0
    8.5710    1.2147   -5.6636 H   0  0  0  0  0  0  0  0  0  0  0  0
    7.1346   -0.1013   -4.1553 H   0  0  0  0  0  0  0  0  0  0  0  0
    5.9973    3.9277   -0.7463 H   0  0  0  0  0  0  0  0  0  0  0  0
  1  2  1  0
  2  3  1  0
  3  4  1  0
  4  5  1  0
  5  6  1  0
  6  7  1  0
  7  8  1  0
  8  9  2  0
  8 10  1  0
 10 11  1  0
 11 12  1  0
 12 13  2  0
 13 14  1  0
 14 15  2  0
 15 16  1  0
 15 17  1  0
 17 18  2  0
 10 19  1  0
 19 20  1  0
 20 21  2  0
 20 22  1  0
 22 23  1  0
 23 24  1  0
 24 25  1  0
 25 26  1  0
 25 27  2  0
 22 28  1  0
 28 29  1  0
 29 30  2  0
 29 31  1  0
 31 32  1  0
 32 33  1  0
 33 34  1  0
 34 35  1  0
 35 36  1  0
 36 37  1  0
 37 38  1  0
 38 39  2  0
 38 40  1  0
 40 41  1  0
 40 42  1  0
 42 43  1  0
 43 44  2  0
 43 45  1  0
 45 46  1  0
 46 47  1  0
 47 48  1  0
 48 49  1  0
 49 50  1  0
 50 51  2  0
 50 52  1  0
 52 53  1  0
 53 54  1  0
 54 55  1  0
 54 56  2  0
 52 57  1  0
 57 58  1  0
 58 59  2  0
 58 60  1  0
 60 61  1  0
 61 62  1  0
 62 63  1  0
 63 64  1  0
 64 65  1  0
 65 66  1  0
 65 67  1  0
 67 68  2  0
 67 69  1  0
 60 70  1  0
 70 71  1  0
 71 72  2  0
 36 73  1  0
 73 74  2  0
 73 75  1  0
 75 76  1  0
 76 77  1  0
 77 78  1  0
 77 79  1  0
 76 80  1  0
 80 81  2  0
 80 82  1  0
 82 83  1  0
 83 84  1  0
 84 85  2  0
 84 86  1  0
  1 87  1  0
 87 88  2  0
 87 89  1  0
 89 90  1  0
 90 91  1  0
 91 92  1  0
 92 93  2  0
 93 94  1  0
 94 95  2  0
 95 96  1  0
 95 97  1  0
 97 98  2  0
 90 99  1  0
 99100  1  0
 99101  2  0
 86  1  1  0
 98 92  1  0
 71  6  1  0
 18 12  1  0
 69 31  1  0
 49 45  1  0
  1102  1  6
  2103  1  0
  2104  1  0
  5105  1  0
  5106  1  0
  6107  1  6
  7108  1  0
 10109  1  6
 11110  1  0
 11111  1  0
 13112  1  0
 14113  1  0
 16114  1  0
 17115  1  0
 18116  1  0
 19117  1  0
 22118  1  1
 23119  1  0
 23120  1  0
 24121  1  0
 24122  1  0
 26123  1  0
 28124  1  0
 31125  1  1
 32126  1  0
 32127  1  0
 35128  1  0
 35129  1  0
 36130  1  6
 37131  1  0
 40132  1  6
 41133  1  0
 41134  1  0
 41135  1  0
 42136  1  0
 45137  1  6
 46138  1  0
 46139  1  0
 47140  1  0
 47141  1  0
 48142  1  0
 48143  1  0
 52144  1  6
 53145  1  0
 53146  1  0
 55147  1  0
 55148  1  0
 57149  1  0
 60150  1  1
 61151  1  0
 61152  1  0
 64153  1  0
 64154  1  0
 65155  1  1
 66156  1  0
 66157  1  0
 69158  1  0
 70159  1  0
 75160  1  0
 76161  1  1
 77162  1  1
 78163  1  0
 78164  1  0
 78165  1  0
 79166  1  0
 82167  1  0
 83168  1  0
 83169  1  0
 86170  1  0
 89171  1  0
 90172  1  6
 91173  1  0
 91174  1  0
 93175  1  0
 94176  1  0
 96177  1  0
 97178  1  0
 98179  1  0
100180  1  0
M  END
$$$$
