
     RDKit          3D

 37 39  0  0  0  0  0  0  0  0999 V2000
   -5.0185    2.1862   -1.2739 N   0  0  0  0  0  0  0  0  0  0  0  0
   -4.4735    1.9960    0.3564 S   0  0  0  0  0  6  0  0  0  0  0  0
   -5.5723    1.3643    1.1650 O   0  0  0  0  0  0  0  0  0  0  0  0
   -4.1392    3.3419    0.9345 O   0  0  0  0  0  0  0  0  0  0  0  0
   -3.0409    0.9737    0.3906 C   0  0  0  0  0  0  0  0  0  0  0  0
   -2.8089    0.1158    1.4741 C   0  0  0  0  0  0  0  0  0  0  0  0
   -1.6650   -0.6873    1.5031 C   0  0  0  0  0  0  0  0  0  0  0  0
   -0.7303   -0.6289    0.4586 C   0  0  0  0  0  0  0  0  0  0  0  0
   -0.9746    0.2204   -0.6339 C   0  0  0  0  0  0  0  0  0  0  0  0
   -2.1180    1.0235   -0.6619 C   0  0  0  0  0  0  0  0  0  0  0  0
    0.4358   -1.4687    0.4942 N   0  0  0  0  0  0  0  0  0  0  0  0
    0.3811   -2.7475    0.8349 N   0  0  0  0  0  0  0  0  0  0  0  0
    1.6173   -3.2635    0.6917 C   0  0  0  0  0  0  0  0  0  0  0  0
    2.4831   -2.2935    0.2240 C   0  0  0  0  0  0  0  0  0  0  0  0
    1.7031   -1.1571    0.1260 C   0  0  0  0  0  0  0  0  0  0  0  0
    2.2095    0.1869   -0.2315 C   0  0  0  0  0  0  0  0  0  0  0  0
    3.1329    0.3346   -1.2799 C   0  0  0  0  0  0  0  0  0  0  0  0
    3.6224    1.6003   -1.6167 C   0  0  0  0  0  0  0  0  0  0  0  0
    3.2035    2.7273   -0.9026 C   0  0  0  0  0  0  0  0  0  0  0  0
    3.8182    4.3144   -1.3268 Cl  0  0  0  0  0  0  0  0  0  0  0  0
    2.2991    2.5865    0.1544 C   0  0  0  0  0  0  0  0  0  0  0  0
    1.8086    1.3222    0.4940 C   0  0  0  0  0  0  0  0  0  0  0  0
    1.9569   -4.7012    0.9235 C   0  0  0  0  0  0  0  0  0  0  0  0
    3.1977   -4.8013    1.5261 F   0  0  0  0  0  0  0  0  0  0  0  0
    1.0097   -5.2858    1.7445 F   0  0  0  0  0  0  0  0  0  0  0  0
    1.9825   -5.3677   -0.2870 F   0  0  0  0  0  0  0  0  0  0  0  0
   -5.2792    1.2363   -1.6218 H   0  0  0  0  0  0  0  0  0  0  0  0
   -5.8990    2.7471   -1.2389 H   0  0  0  0  0  0  0  0  0  0  0  0
   -3.5104    0.0690    2.2971 H   0  0  0  0  0  0  0  0  0  0  0  0
   -1.4982   -1.3446    2.3471 H   0  0  0  0  0  0  0  0  0  0  0  0
   -0.2859    0.2542   -1.4680 H   0  0  0  0  0  0  0  0  0  0  0  0
   -2.2842    1.6808   -1.5058 H   0  0  0  0  0  0  0  0  0  0  0  0
    3.5399   -2.3953    0.0136 H   0  0  0  0  0  0  0  0  0  0  0  0
    3.4633   -0.5272   -1.8465 H   0  0  0  0  0  0  0  0  0  0  0  0
    4.3263    1.7036   -2.4326 H   0  0  0  0  0  0  0  0  0  0  0  0
    1.9800    3.4545    0.7172 H   0  0  0  0  0  0  0  0  0  0  0  0
    1.1272    1.2304    1.3302 H   0  0  0  0  0  0  0  0  0  0  0  0
  1  2  1  0
  2  3  2  0
  2  4  2  0
  2  5  1  0
  5  6  2  0
  6  7  1  0
  7  8  2  0
  8  9  1  0
  9 10  2  0
  8 11  1  0
 11 12  1  0
 12 13  2  0
 13 14  1  0
 14 15  2  0
 15 16  1  0
 16 17  2  0
 17 18  1  0
 18 19  2  0
 19 20  1  0
 19 21  1  0
 21 22  2  0
 13 23  1  0
 23 24  1  0
 23 25  1  0
 23 26  1  0
 10  5  1  0
 15 11  1  0
 22 16  1  0
  1 27  1  0
  1 28  1  0
  6 29  1  0
  7 30  1  0
  9 31  1  0
 10 32  1  0
 14 33  1  0
 17 34  1  0
 18 35  1  0
 21 36  1  0
 22 37  1  0
M  END
$$$$
