
     RDKit          3D

 53 54  0  0  0  0  0  0  0  0999 V2000
    4.1750    2.2628    1.7032 C   0  0  0  0  0  0  0  0  0  0  0  0
    2.6797    2.5346    1.7074 C   0  0  0  0  0  0  0  0  0  0  0  0
    1.9992    1.4872    1.0235 O   0  0  0  0  0  0  0  0  0  0  0  0
    0.6079    1.4605    0.8791 C   0  0  0  0  0  0  0  0  0  0  0  0
   -0.0896    2.3806    1.3869 O   0  0  0  0  0  0  0  0  0  0  0  0
   -0.0591    0.3206    0.1907 C   0  0  0  0  0  0  0  0  0  0  0  0
    0.5210   -0.3390   -0.8393 C   0  0  0  0  0  0  0  0  0  0  0  0
    1.7970    0.1251   -1.4976 C   0  0  0  0  0  0  0  0  0  0  0  0
    2.8967   -0.4609   -0.8343 O   0  0  0  0  0  0  0  0  0  0  0  0
    4.0936   -0.0860   -1.4818 C   0  0  0  0  0  0  0  0  0  0  0  0
    5.2759   -0.6915   -0.7312 C   0  0  0  0  0  0  0  0  0  0  0  0
    6.5323   -0.2765   -1.3470 N   0  0  0  0  0  0  0  0  0  0  0  0
   -0.0734   -1.5462   -1.3352 N   0  0  0  0  0  0  0  0  0  0  0  0
   -1.2468   -2.1316   -0.7558 C   0  0  0  0  0  0  0  0  0  0  0  0
   -1.6809   -3.4830   -1.2636 C   0  0  0  0  0  0  0  0  0  0  0  0
   -1.9232   -1.4661    0.2079 C   0  0  0  0  0  0  0  0  0  0  0  0
   -1.4167   -0.1256    0.7228 C   0  0  2  0  0  0  0  0  0  0  0  0
   -2.4782    0.9535    0.5242 C   0  0  0  0  0  0  0  0  0  0  0  0
   -3.0766    1.5269    1.6649 C   0  0  0  0  0  0  0  0  0  0  0  0
   -4.0573    2.5125    1.5406 C   0  0  0  0  0  0  0  0  0  0  0  0
   -4.4618    2.9409    0.2779 C   0  0  0  0  0  0  0  0  0  0  0  0
   -3.8885    2.3831   -0.8647 C   0  0  0  0  0  0  0  0  0  0  0  0
   -2.9035    1.3930   -0.7566 C   0  0  0  0  0  0  0  0  0  0  0  0
   -2.2533    0.7392   -2.2544 Cl  0  0  0  0  0  0  0  0  0  0  0  0
   -3.1694   -2.0022    0.8193 C   0  0  0  0  0  0  0  0  0  0  0  0
   -3.4325   -1.7385    2.0249 O   0  0  0  0  0  0  0  0  0  0  0  0
   -4.0750   -2.7464    0.0561 O   0  0  0  0  0  0  0  0  0  0  0  0
   -5.2904   -3.2578    0.5890 C   0  0  0  0  0  0  0  0  0  0  0  0
    4.3845    1.2859    2.1879 H   0  0  0  0  0  0  0  0  0  0  0  0
    4.5548    2.2442    0.6605 H   0  0  0  0  0  0  0  0  0  0  0  0
    4.7028    3.0637    2.2625 H   0  0  0  0  0  0  0  0  0  0  0  0
    2.4808    3.5043    1.2016 H   0  0  0  0  0  0  0  0  0  0  0  0
    2.3214    2.5903    2.7582 H   0  0  0  0  0  0  0  0  0  0  0  0
    1.8575    1.2368   -1.4883 H   0  0  0  0  0  0  0  0  0  0  0  0
    1.7727   -0.1872   -2.5667 H   0  0  0  0  0  0  0  0  0  0  0  0
    4.2090    1.0222   -1.4895 H   0  0  0  0  0  0  0  0  0  0  0  0
    4.1068   -0.4668   -2.5289 H   0  0  0  0  0  0  0  0  0  0  0  0
    5.1973   -1.8018   -0.7388 H   0  0  0  0  0  0  0  0  0  0  0  0
    5.2538   -0.3451    0.3249 H   0  0  0  0  0  0  0  0  0  0  0  0
    6.6142   -0.7520   -2.2753 H   0  0  0  0  0  0  0  0  0  0  0  0
    7.3125   -0.6446   -0.7559 H   0  0  0  0  0  0  0  0  0  0  0  0
    0.3952   -2.0433   -2.1262 H   0  0  0  0  0  0  0  0  0  0  0  0
   -2.5559   -3.3696   -1.9370 H   0  0  0  0  0  0  0  0  0  0  0  0
   -0.8645   -3.9676   -1.8387 H   0  0  0  0  0  0  0  0  0  0  0  0
   -1.9311   -4.1586   -0.4185 H   0  0  0  0  0  0  0  0  0  0  0  0
   -1.2531   -0.2776    1.8133 H   0  0  0  0  0  0  0  0  0  0  0  0
   -2.7825    1.2127    2.6587 H   0  0  0  0  0  0  0  0  0  0  0  0
   -4.5049    2.9445    2.4264 H   0  0  0  0  0  0  0  0  0  0  0  0
   -5.2227    3.7049    0.1838 H   0  0  0  0  0  0  0  0  0  0  0  0
   -4.2145    2.7212   -1.8403 H   0  0  0  0  0  0  0  0  0  0  0  0
   -5.0748   -3.9517    1.4288 H   0  0  0  0  0  0  0  0  0  0  0  0
   -5.8317   -3.8115   -0.2053 H   0  0  0  0  0  0  0  0  0  0  0  0
   -5.9299   -2.4227    0.9458 H   0  0  0  0  0  0  0  0  0  0  0  0
  1  2  1  0
  2  3  1  0
  3  4  1  0
  4  5  2  0
  4  6  1  0
  6  7  2  0
  7  8  1  0
  8  9  1  0
  9 10  1  0
 10 11  1  0
 11 12  1  0
  7 13  1  0
 13 14  1  0
 14 15  1  0
 14 16  2  0
 16 17  1  0
 17 18  1  0
 18 19  2  0
 19 20  1  0
 20 21  2  0
 21 22  1  0
 22 23  2  0
 23 24  1  0
 16 25  1  0
 25 26  2  0
 25 27  1  0
 27 28  1  0
 17  6  1  0
 23 18  1  0
  1 29  1  0
  1 30  1  0
  1 31  1  0
  2 32  1  0
  2 33  1  0
  8 34  1  0
  8 35  1  0
 10 36  1  0
 10 37  1  0
 11 38  1  0
 11 39  1  0
 12 40  1  0
 12 41  1  0
 13 42  1  0
 15 43  1  0
 15 44  1  0
 15 45  1  0
 17 46  1  1
 19 47  1  0
 20 48  1  0
 21 49  1  0
 22 50  1  0
 28 51  1  0
 28 52  1  0
 28 53  1  0
M  END
$$$$
