
     RDKit          3D

 30 30  0  0  0  0  0  0  0  0999 V2000
    3.8222    0.0216    1.4127 N   0  0  0  0  0  0  0  0  0  0  0  0
    3.6585   -0.7898    0.2036 C   0  0  1  0  0  0  0  0  0  0  0  0
    2.1770   -0.8863   -0.1829 C   0  0  0  0  0  0  0  0  0  0  0  0
    1.6673    0.3928   -0.4822 O   0  0  0  0  0  0  0  0  0  0  0  0
    0.0016    0.2708   -0.7771 S   0  0  0  0  0  6  0  0  0  0  0  0
   -0.4505    1.5346   -1.4531 O   0  0  0  0  0  0  0  0  0  0  0  0
   -0.2977   -0.8924   -1.6834 O   0  0  0  0  0  0  0  0  0  0  0  0
   -0.8864    0.0877    0.7633 C   0  0  0  0  0  0  0  0  0  0  0  0
   -2.3690    0.1573    0.5256 C   0  0  0  0  0  0  0  0  0  0  0  0
   -3.0406    1.3899    0.5869 C   0  0  0  0  0  0  0  0  0  0  0  0
   -4.4145    1.4563    0.3346 C   0  0  0  0  0  0  0  0  0  0  0  0
   -5.1245    0.2965    0.0120 C   0  0  0  0  0  0  0  0  0  0  0  0
   -4.4611   -0.9314   -0.0622 C   0  0  0  0  0  0  0  0  0  0  0  0
   -3.0874   -1.0023    0.1893 C   0  0  0  0  0  0  0  0  0  0  0  0
    4.4825   -0.2458   -0.9354 C   0  0  0  0  0  0  0  0  0  0  0  0
    4.4258    1.1065   -1.2615 O   0  0  0  0  0  0  0  0  0  0  0  0
    5.2044   -1.0232   -1.6156 O   0  0  0  0  0  0  0  0  0  0  0  0
    3.5692    1.0165    1.2108 H   0  0  0  0  0  0  0  0  0  0  0  0
    4.8311    0.0074    1.6895 H   0  0  0  0  0  0  0  0  0  0  0  0
    4.0102   -1.8211    0.4328 H   0  0  0  0  0  0  0  0  0  0  0  0
    2.0877   -1.5556   -1.0678 H   0  0  0  0  0  0  0  0  0  0  0  0
    1.6294   -1.3429    0.6709 H   0  0  0  0  0  0  0  0  0  0  0  0
   -0.6238   -0.8848    1.2301 H   0  0  0  0  0  0  0  0  0  0  0  0
   -0.5673    0.8912    1.4610 H   0  0  0  0  0  0  0  0  0  0  0  0
   -2.5006    2.2974    0.8272 H   0  0  0  0  0  0  0  0  0  0  0  0
   -4.9281    2.4076    0.3860 H   0  0  0  0  0  0  0  0  0  0  0  0
   -6.1875    0.3499   -0.1843 H   0  0  0  0  0  0  0  0  0  0  0  0
   -5.0109   -1.8280   -0.3178 H   0  0  0  0  0  0  0  0  0  0  0  0
   -2.5835   -1.9585    0.1204 H   0  0  0  0  0  0  0  0  0  0  0  0
    4.9666    1.4782   -2.0332 H   0  0  0  0  0  0  0  0  0  0  0  0
  1  2  1  0
  2  3  1  0
  3  4  1  0
  4  5  1  0
  5  6  2  0
  5  7  2  0
  5  8  1  0
  8  9  1  0
  9 10  2  0
 10 11  1  0
 11 12  2  0
 12 13  1  0
 13 14  2  0
  2 15  1  0
 15 16  1  0
 15 17  2  0
 14  9  1  0
  1 18  1  0
  1 19  1  0
  2 20  1  1
  3 21  1  0
  3 22  1  0
  8 23  1  0
  8 24  1  0
 10 25  1  0
 11 26  1  0
 12 27  1  0
 13 28  1  0
 14 29  1  0
 16 30  1  0
M  END
$$$$
