
     RDKit          3D

 65 64  0  0  0  0  0  0  0  0999 V2000
   10.7047   -1.2019   -0.0204 C   0  0  0  0  0  0  0  0  0  0  0  0
   10.1366    0.1704    0.3058 C   0  0  0  0  0  0  0  0  0  0  0  0
    9.1190    0.0316    1.2754 O   0  0  0  0  0  0  0  0  0  0  0  0
    8.4659    1.2687    1.4903 C   0  0  0  0  0  0  0  0  0  0  0  0
    7.2138    1.3833    0.6176 C   0  0  0  0  0  0  0  0  0  0  0  0
    6.3075    0.3366    0.9194 O   0  0  0  0  0  0  0  0  0  0  0  0
    6.3175   -0.6670   -0.0797 C   0  0  0  0  0  0  0  0  0  0  0  0
    5.2958   -0.3545   -1.1719 C   0  0  0  0  0  0  0  0  0  0  0  0
    4.0139   -0.2346   -0.5921 O   0  0  0  0  0  0  0  0  0  0  0  0
    3.0689    0.0698   -1.5962 C   0  0  0  0  0  0  0  0  0  0  0  0
    1.6816    0.1819   -0.9675 C   0  0  0  0  0  0  0  0  0  0  0  0
    1.3380   -1.0208   -0.3029 O   0  0  0  0  0  0  0  0  0  0  0  0
    0.5917   -1.8815   -1.1436 C   0  0  0  0  0  0  0  0  0  0  0  0
   -0.9104   -1.6377   -0.9804 C   0  0  0  0  0  0  0  0  0  0  0  0
   -1.3083   -1.9011    0.3540 O   0  0  0  0  0  0  0  0  0  0  0  0
   -1.5335   -0.7048    1.0765 C   0  0  0  0  0  0  0  0  0  0  0  0
   -2.9801   -0.2290    0.9180 C   0  0  0  0  0  0  0  0  0  0  0  0
   -3.8757   -1.1882    1.4517 O   0  0  0  0  0  0  0  0  0  0  0  0
   -4.4796   -1.9702    0.4365 C   0  0  0  0  0  0  0  0  0  0  0  0
   -5.8722   -1.4357    0.1099 C   0  0  0  0  0  0  0  0  0  0  0  0
   -5.7621   -0.1757   -0.5194 O   0  0  0  0  0  0  0  0  0  0  0  0
   -7.0329    0.4350   -0.6359 C   0  0  0  0  0  0  0  0  0  0  0  0
   -7.2515    1.4186    0.5159 C   0  0  0  0  0  0  0  0  0  0  0  0
   -8.4601    2.1306    0.3281 O   0  0  0  0  0  0  0  0  0  0  0  0
   -9.5064    1.5343    1.0674 C   0  0  0  0  0  0  0  0  0  0  0  0
  -10.8244    2.2252    0.7284 C   0  0  0  0  0  0  0  0  0  0  0  0
  -10.7619    3.5897    1.0446 O   0  0  0  0  0  0  0  0  0  0  0  0
   11.1262   -1.6667    0.8961 H   0  0  0  0  0  0  0  0  0  0  0  0
    9.9048   -1.8569   -0.4265 H   0  0  0  0  0  0  0  0  0  0  0  0
   11.5103   -1.1047   -0.7784 H   0  0  0  0  0  0  0  0  0  0  0  0
   10.9604    0.8073    0.6997 H   0  0  0  0  0  0  0  0  0  0  0  0
    9.7416    0.6149   -0.6358 H   0  0  0  0  0  0  0  0  0  0  0  0
    8.1527    1.3093    2.5552 H   0  0  0  0  0  0  0  0  0  0  0  0
    9.1258    2.1539    1.3269 H   0  0  0  0  0  0  0  0  0  0  0  0
    7.4957    1.4502   -0.4590 H   0  0  0  0  0  0  0  0  0  0  0  0
    6.7142    2.3450    0.8601 H   0  0  0  0  0  0  0  0  0  0  0  0
    6.0340   -1.6288    0.3981 H   0  0  0  0  0  0  0  0  0  0  0  0
    7.3252   -0.8297   -0.5276 H   0  0  0  0  0  0  0  0  0  0  0  0
    5.3154   -1.1881   -1.9105 H   0  0  0  0  0  0  0  0  0  0  0  0
    5.5919    0.5897   -1.6825 H   0  0  0  0  0  0  0  0  0  0  0  0
    3.0464   -0.7249   -2.3760 H   0  0  0  0  0  0  0  0  0  0  0  0
    3.3090    1.0452   -2.0777 H   0  0  0  0  0  0  0  0  0  0  0  0
    0.9364    0.4924   -1.7369 H   0  0  0  0  0  0  0  0  0  0  0  0
    1.7044    0.9964   -0.2126 H   0  0  0  0  0  0  0  0  0  0  0  0
    0.8102   -2.9281   -0.8429 H   0  0  0  0  0  0  0  0  0  0  0  0
    0.8778   -1.8018   -2.2184 H   0  0  0  0  0  0  0  0  0  0  0  0
   -1.4461   -2.3516   -1.6411 H   0  0  0  0  0  0  0  0  0  0  0  0
   -1.1815   -0.6203   -1.3474 H   0  0  0  0  0  0  0  0  0  0  0  0
   -1.3510   -0.9146    2.1518 H   0  0  0  0  0  0  0  0  0  0  0  0
   -0.8271    0.1112    0.7978 H   0  0  0  0  0  0  0  0  0  0  0  0
   -3.1869    0.0515   -0.1405 H   0  0  0  0  0  0  0  0  0  0  0  0
   -3.0976    0.7059    1.5057 H   0  0  0  0  0  0  0  0  0  0  0  0
   -4.5926   -3.0029    0.8290 H   0  0  0  0  0  0  0  0  0  0  0  0
   -3.8697   -2.0599   -0.4925 H   0  0  0  0  0  0  0  0  0  0  0  0
   -6.3721   -2.1561   -0.5760 H   0  0  0  0  0  0  0  0  0  0  0  0
   -6.4546   -1.3722    1.0580 H   0  0  0  0  0  0  0  0  0  0  0  0
   -7.0501    1.0054   -1.5888 H   0  0  0  0  0  0  0  0  0  0  0  0
   -7.8743   -0.2957   -0.6939 H   0  0  0  0  0  0  0  0  0  0  0  0
   -6.4188    2.1538    0.5077 H   0  0  0  0  0  0  0  0  0  0  0  0
   -7.1915    0.8914    1.4974 H   0  0  0  0  0  0  0  0  0  0  0  0
   -9.3187    1.6405    2.1600 H   0  0  0  0  0  0  0  0  0  0  0  0
   -9.6089    0.4536    0.8178 H   0  0  0  0  0  0  0  0  0  0  0  0
  -11.6603    1.7370    1.2792 H   0  0  0  0  0  0  0  0  0  0  0  0
  -11.0251    2.1182   -0.3588 H   0  0  0  0  0  0  0  0  0  0  0  0
  -10.8514    3.6570    2.0312 H   0  0  0  0  0  0  0  0  0  0  0  0
  1  2  1  0
  2  3  1  0
  3  4  1  0
  4  5  1  0
  5  6  1  0
  6  7  1  0
  7  8  1  0
  8  9  1  0
  9 10  1  0
 10 11  1  0
 11 12  1  0
 12 13  1  0
 13 14  1  0
 14 15  1  0
 15 16  1  0
 16 17  1  0
 17 18  1  0
 18 19  1  0
 19 20  1  0
 20 21  1  0
 21 22  1  0
 22 23  1  0
 23 24  1  0
 24 25  1  0
 25 26  1  0
 26 27  1  0
  1 28  1  0
  1 29  1  0
  1 30  1  0
  2 31  1  0
  2 32  1  0
  4 33  1  0
  4 34  1  0
  5 35  1  0
  5 36  1  0
  7 37  1  0
  7 38  1  0
  8 39  1  0
  8 40  1  0
 10 41  1  0
 10 42  1  0
 11 43  1  0
 11 44  1  0
 13 45  1  0
 13 46  1  0
 14 47  1  0
 14 48  1  0
 16 49  1  0
 16 50  1  0
 17 51  1  0
 17 52  1  0
 19 53  1  0
 19 54  1  0
 20 55  1  0
 20 56  1  0
 22 57  1  0
 22 58  1  0
 23 59  1  0
 23 60  1  0
 25 61  1  0
 25 62  1  0
 26 63  1  0
 26 64  1  0
 27 65  1  0
M  END
$$$$
