
     RDKit          3D

 42 44  0  0  0  0  0  0  0  0999 V2000
   -1.0150    2.4217    0.4556 O   0  0  0  0  0  0  0  0  0  0  0  0
   -0.8750    1.3302   -0.4210 C   0  0  0  0  0  0  0  0  0  0  0  0
   -2.2416    0.6042   -0.6109 C   0  0  0  0  0  0  0  0  0  0  0  0
   -3.0092    0.3378    0.7112 C   0  0  0  0  0  0  0  0  0  0  0  0
   -4.3875   -0.2990    0.4495 C   0  0  0  0  0  0  0  0  0  0  0  0
   -4.4474   -1.0850   -0.8687 C   0  0  0  0  0  0  0  0  0  0  0  0
   -3.0758   -1.6634   -1.2232 C   0  0  0  0  0  0  0  0  0  0  0  0
   -2.0671   -0.6099   -1.4422 N   0  0  0  0  0  0  0  0  0  0  0  0
    0.3707    0.4991   -0.0579 C   0  0  0  0  0  0  0  0  0  0  0  0
    0.2612   -0.8156    0.4385 C   0  0  0  0  0  0  0  0  0  0  0  0
    1.4005   -1.5526    0.7700 C   0  0  0  0  0  0  0  0  0  0  0  0
    2.6270   -0.9953    0.6258 N   0  0  0  0  0  0  0  0  0  0  0  0
    2.8066    0.2711    0.1685 C   0  0  0  0  0  0  0  0  0  0  0  0
    1.6773    1.0602   -0.1815 C   0  0  0  0  0  0  0  0  0  0  0  0
    1.8965    2.3789   -0.6365 C   0  0  0  0  0  0  0  0  0  0  0  0
    3.1886    2.8888   -0.7483 C   0  0  0  0  0  0  0  0  0  0  0  0
    4.2895    2.1061   -0.4111 C   0  0  0  0  0  0  0  0  0  0  0  0
    4.1162    0.7910    0.0505 C   0  0  0  0  0  0  0  0  0  0  0  0
    5.3144   -0.0574    0.4234 C   0  0  0  0  0  0  0  0  0  0  0  0
    5.3302   -1.2027   -0.3522 F   0  0  0  0  0  0  0  0  0  0  0  0
    5.2303   -0.4153    1.7569 F   0  0  0  0  0  0  0  0  0  0  0  0
    6.5069    0.6180    0.2271 F   0  0  0  0  0  0  0  0  0  0  0  0
    1.2724   -2.9576    1.2834 C   0  0  0  0  0  0  0  0  0  0  0  0
    0.6316   -3.7405    0.3404 F   0  0  0  0  0  0  0  0  0  0  0  0
    2.5205   -3.4980    1.5402 F   0  0  0  0  0  0  0  0  0  0  0  0
    0.5351   -2.9593    2.4535 F   0  0  0  0  0  0  0  0  0  0  0  0
   -0.9418    2.0737    1.3828 H   0  0  0  0  0  0  0  0  0  0  0  0
   -0.6654    1.7508   -1.4286 H   0  0  0  0  0  0  0  0  0  0  0  0
   -2.8868    1.3176   -1.1779 H   0  0  0  0  0  0  0  0  0  0  0  0
   -3.1736    1.2927    1.2550 H   0  0  0  0  0  0  0  0  0  0  0  0
   -2.4285   -0.3180    1.3881 H   0  0  0  0  0  0  0  0  0  0  0  0
   -5.1664    0.4944    0.4242 H   0  0  0  0  0  0  0  0  0  0  0  0
   -4.6354   -0.9772    1.2953 H   0  0  0  0  0  0  0  0  0  0  0  0
   -5.1900   -1.9073   -0.7799 H   0  0  0  0  0  0  0  0  0  0  0  0
   -4.7795   -0.4139   -1.6912 H   0  0  0  0  0  0  0  0  0  0  0  0
   -3.1684   -2.2876   -2.1392 H   0  0  0  0  0  0  0  0  0  0  0  0
   -2.7333   -2.3340   -0.4057 H   0  0  0  0  0  0  0  0  0  0  0  0
   -2.0953   -0.3264   -2.4502 H   0  0  0  0  0  0  0  0  0  0  0  0
   -0.6913   -1.2970    0.5620 H   0  0  0  0  0  0  0  0  0  0  0  0
    1.0839    3.0367   -0.9064 H   0  0  0  0  0  0  0  0  0  0  0  0
    3.3380    3.9021   -1.0990 H   0  0  0  0  0  0  0  0  0  0  0  0
    5.2767    2.5380   -0.5114 H   0  0  0  0  0  0  0  0  0  0  0  0
  1  2  1  0
  2  3  1  0
  3  4  1  0
  4  5  1  0
  5  6  1  0
  6  7  1  0
  7  8  1  0
  2  9  1  0
  9 10  2  0
 10 11  1  0
 11 12  2  0
 12 13  1  0
 13 14  2  0
 14 15  1  0
 15 16  2  0
 16 17  1  0
 17 18  2  0
 18 19  1  0
 19 20  1  0
 19 21  1  0
 19 22  1  0
 11 23  1  0
 23 24  1  0
 23 25  1  0
 23 26  1  0
  8  3  1  0
 14  9  1  0
 18 13  1  0
  1 27  1  0
  2 28  1  0
  3 29  1  0
  4 30  1  0
  4 31  1  0
  5 32  1  0
  5 33  1  0
  6 34  1  0
  6 35  1  0
  7 36  1  0
  7 37  1  0
  8 38  1  0
 10 39  1  0
 15 40  1  0
 16 41  1  0
 17 42  1  0
M  END
$$$$
