
     RDKit          3D

 27 28  0  0  0  0  0  0  0  0999 V2000
   -2.7502    2.0550    0.5964 C   0  0  0  0  0  0  0  0  0  0  0  0
   -1.8673    0.9616    0.1687 N   0  0  0  0  0  0  0  0  0  0  0  0
   -0.5605    1.1984   -0.1273 C   0  0  0  0  0  0  0  0  0  0  0  0
    0.2948    0.2086   -0.4743 C   0  0  0  0  0  0  0  0  0  0  0  0
    1.5131    0.7416   -0.6829 N   0  0  0  0  0  0  0  0  0  0  0  0
    2.7739    0.0749   -1.0070 C   0  0  0  0  0  0  0  0  0  0  0  0
    3.3763   -0.5142    0.2284 C   0  0  0  0  0  0  0  0  0  0  0  0
    3.8186    0.3225    1.2480 O   0  0  0  0  0  0  0  0  0  0  0  0
    3.4754   -1.7642    0.3515 O   0  0  0  0  0  0  0  0  0  0  0  0
    1.3454    2.0641   -0.4329 C   0  0  0  0  0  0  0  0  0  0  0  0
    0.0727    2.3877   -0.0876 N   0  0  0  0  0  0  0  0  0  0  0  0
   -0.1433   -1.1096   -0.5315 C   0  0  0  0  0  0  0  0  0  0  0  0
    0.6547   -2.0395   -0.8298 O   0  0  0  0  0  0  0  0  0  0  0  0
   -1.4646   -1.3702   -0.2460 N   0  0  0  0  0  0  0  0  0  0  0  0
   -1.9570   -2.7579   -0.2618 C   0  0  0  0  0  0  0  0  0  0  0  0
   -2.3122   -0.3423    0.1334 C   0  0  0  0  0  0  0  0  0  0  0  0
   -3.5055   -0.6011    0.4591 O   0  0  0  0  0  0  0  0  0  0  0  0
   -2.4004    3.0335    0.2034 H   0  0  0  0  0  0  0  0  0  0  0  0
   -2.7771    2.0990    1.7055 H   0  0  0  0  0  0  0  0  0  0  0  0
   -3.7806    1.9008    0.2106 H   0  0  0  0  0  0  0  0  0  0  0  0
    2.6058   -0.7080   -1.7768 H   0  0  0  0  0  0  0  0  0  0  0  0
    3.4882    0.8089   -1.4382 H   0  0  0  0  0  0  0  0  0  0  0  0
    4.2242   -0.0594    2.0941 H   0  0  0  0  0  0  0  0  0  0  0  0
    2.1455    2.7911   -0.4889 H   0  0  0  0  0  0  0  0  0  0  0  0
   -3.0265   -2.8000   -0.5595 H   0  0  0  0  0  0  0  0  0  0  0  0
   -1.4028   -3.3759   -1.0001 H   0  0  0  0  0  0  0  0  0  0  0  0
   -1.8409   -3.2053    0.7477 H   0  0  0  0  0  0  0  0  0  0  0  0
  1  2  1  0
  2  3  1  0
  3  4  2  0
  4  5  1  0
  5  6  1  0
  6  7  1  0
  7  8  1  0
  7  9  2  0
  5 10  1  0
 10 11  2  0
  4 12  1  0
 12 13  2  0
 12 14  1  0
 14 15  1  0
 14 16  1  0
 16 17  2  0
 16  2  1  0
 11  3  1  0
  1 18  1  0
  1 19  1  0
  1 20  1  0
  6 21  1  0
  6 22  1  0
  8 23  1  0
 10 24  1  0
 15 25  1  0
 15 26  1  0
 15 27  1  0
M  END
$$$$
