
     RDKit          3D

 98100  0  0  0  0  0  0  0  0999 V2000
   -0.3391   -4.1473    1.2727 C   0  0  0  0  0  0  0  0  0  0  0  0
    0.7934   -3.4654    0.5054 C   0  0  0  0  0  0  0  0  0  0  0  0
    0.4418   -2.0320    0.0790 C   0  0  0  0  0  0  0  0  0  0  0  0
    0.4606   -1.0434    1.2610 C   0  0  0  0  0  0  0  0  0  0  0  0
    0.1191    0.4041    0.8526 C   0  0  1  0  0  0  0  0  0  0  0  0
    1.0751    0.9007   -0.1449 N   0  0  0  0  0  0  0  0  0  0  0  0
    2.3582    1.4254    0.2254 C   0  0  0  0  0  0  0  0  0  0  0  0
    2.5953    1.7303    1.4268 O   0  0  0  0  0  0  0  0  0  0  0  0
    3.4484    1.5208   -0.8126 C   0  0  1  0  0  0  0  0  0  0  0  0
    4.4851    2.6160   -0.4834 C   0  0  0  0  0  0  0  0  0  0  0  0
    5.5316    2.7392   -1.5613 C   0  0  0  0  0  0  0  0  0  0  0  0
    5.2028    3.3016   -2.8066 C   0  0  0  0  0  0  0  0  0  0  0  0
    6.1707    3.4065   -3.8103 C   0  0  0  0  0  0  0  0  0  0  0  0
    7.4723    2.9543   -3.5779 C   0  0  0  0  0  0  0  0  0  0  0  0
    7.8083    2.3978   -2.3411 C   0  0  0  0  0  0  0  0  0  0  0  0
    6.8428    2.2887   -1.3354 C   0  0  0  0  0  0  0  0  0  0  0  0
    4.0709    0.2046   -1.0022 N   0  0  0  0  0  0  0  0  0  0  0  0
    4.6179   -0.5793    0.0701 C   0  0  0  0  0  0  0  0  0  0  0  0
    5.1026   -0.0140    1.0876 O   0  0  0  0  0  0  0  0  0  0  0  0
    4.6252   -2.0858   -0.0289 C   0  0  2  0  0  0  0  0  0  0  0  0
    4.6414   -2.6924    1.3049 N   0  0  0  0  0  0  0  0  0  0  0  0
    5.8098   -2.5931   -0.8756 C   0  0  0  0  0  0  0  0  0  0  0  0
    7.1530   -2.2174   -0.2977 C   0  0  0  0  0  0  0  0  0  0  0  0
    7.8424   -1.0946   -0.7838 C   0  0  0  0  0  0  0  0  0  0  0  0
    9.0742   -0.7295   -0.2323 C   0  0  0  0  0  0  0  0  0  0  0  0
    9.6276   -1.4836    0.8058 C   0  0  0  0  0  0  0  0  0  0  0  0
    8.9512   -2.6057    1.2918 C   0  0  0  0  0  0  0  0  0  0  0  0
    7.7188   -2.9735    0.7430 C   0  0  0  0  0  0  0  0  0  0  0  0
   -1.3045    0.5136    0.3594 C   0  0  0  0  0  0  0  0  0  0  0  0
   -1.5513    0.5243   -0.8782 O   0  0  0  0  0  0  0  0  0  0  0  0
   -2.3827    0.5467    1.3066 N   0  0  0  0  0  0  0  0  0  0  0  0
   -3.7866    0.6264    0.8897 C   0  0  2  0  0  0  0  0  0  0  0  0
   -4.1481    2.0866    0.5432 C   0  0  0  0  0  0  0  0  0  0  0  0
   -5.5200    2.2225   -0.1432 C   0  0  0  0  0  0  0  0  0  0  0  0
   -5.4497    1.9246   -1.6459 C   0  0  0  0  0  0  0  0  0  0  0  0
   -6.7925    1.9339   -2.2235 N   0  0  0  0  0  0  0  0  0  0  0  0
   -7.6948    0.8237   -2.1089 C   0  0  0  0  0  0  0  0  0  0  0  0
   -9.0363    0.9502   -2.5860 N   0  0  0  0  0  0  0  0  0  0  0  0
   -7.2934   -0.2942   -1.5904 N   0  0  0  0  0  0  0  0  0  0  0  0
   -4.6839    0.1003    1.9843 C   0  0  0  0  0  0  0  0  0  0  0  0
   -4.6030    0.5884    3.1450 O   0  0  0  0  0  0  0  0  0  0  0  0
   -5.6577   -0.9147    1.6974 N   0  0  0  0  0  0  0  0  0  0  0  0
   -6.7965   -1.1713    2.5756 C   0  0  0  0  0  0  0  0  0  0  0  0
   -7.9388   -0.2689    2.1994 C   0  0  0  0  0  0  0  0  0  0  0  0
   -8.9103   -0.6984    1.2841 C   0  0  0  0  0  0  0  0  0  0  0  0
   -9.9236    0.1799    0.8927 C   0  0  0  0  0  0  0  0  0  0  0  0
   -9.9618    1.4435    1.3926 N   0  0  0  0  0  0  0  0  0  0  0  0
   -9.0307    1.8875    2.2780 C   0  0  0  0  0  0  0  0  0  0  0  0
   -8.0010    1.0413    2.6962 C   0  0  0  0  0  0  0  0  0  0  0  0
   -0.4997   -3.6598    2.2561 H   0  0  0  0  0  0  0  0  0  0  0  0
   -1.2815   -4.1155    0.6856 H   0  0  0  0  0  0  0  0  0  0  0  0
   -0.0730   -5.2099    1.4543 H   0  0  0  0  0  0  0  0  0  0  0  0
    1.0019   -4.0626   -0.4087 H   0  0  0  0  0  0  0  0  0  0  0  0
    1.7155   -3.4689    1.1242 H   0  0  0  0  0  0  0  0  0  0  0  0
   -0.5534   -2.0273   -0.4153 H   0  0  0  0  0  0  0  0  0  0  0  0
    1.1929   -1.7093   -0.6734 H   0  0  0  0  0  0  0  0  0  0  0  0
    1.4717   -1.0523    1.7240 H   0  0  0  0  0  0  0  0  0  0  0  0
   -0.2625   -1.3691    2.0384 H   0  0  0  0  0  0  0  0  0  0  0  0
    0.1913    1.0386    1.7633 H   0  0  0  0  0  0  0  0  0  0  0  0
    0.9203    0.6708   -1.1529 H   0  0  0  0  0  0  0  0  0  0  0  0
    2.9594    1.8127   -1.7687 H   0  0  0  0  0  0  0  0  0  0  0  0
    3.9606    3.5923   -0.3888 H   0  0  0  0  0  0  0  0  0  0  0  0
    4.9645    2.4228    0.4995 H   0  0  0  0  0  0  0  0  0  0  0  0
    4.1985    3.6580   -2.9989 H   0  0  0  0  0  0  0  0  0  0  0  0
    5.9117    3.8390   -4.7680 H   0  0  0  0  0  0  0  0  0  0  0  0
    8.2206    3.0364   -4.3555 H   0  0  0  0  0  0  0  0  0  0  0  0
    8.8172    2.0497   -2.1625 H   0  0  0  0  0  0  0  0  0  0  0  0
    7.1177    1.8536   -0.3827 H   0  0  0  0  0  0  0  0  0  0  0  0
    3.9325   -0.2628   -1.9267 H   0  0  0  0  0  0  0  0  0  0  0  0
    3.6872   -2.3955   -0.5432 H   0  0  0  0  0  0  0  0  0  0  0  0
    3.8049   -2.3536    1.8340 H   0  0  0  0  0  0  0  0  0  0  0  0
    4.5157   -3.7254    1.1977 H   0  0  0  0  0  0  0  0  0  0  0  0
    5.7158   -2.1948   -1.9100 H   0  0  0  0  0  0  0  0  0  0  0  0
    5.7469   -3.6997   -0.9656 H   0  0  0  0  0  0  0  0  0  0  0  0
    7.4261   -0.5061   -1.5907 H   0  0  0  0  0  0  0  0  0  0  0  0
    9.6004    0.1374   -0.6095 H   0  0  0  0  0  0  0  0  0  0  0  0
   10.5811   -1.1997    1.2320 H   0  0  0  0  0  0  0  0  0  0  0  0
    9.3817   -3.1905    2.0943 H   0  0  0  0  0  0  0  0  0  0  0  0
    7.2067   -3.8461    1.1286 H   0  0  0  0  0  0  0  0  0  0  0  0
   -2.1448    0.5476    2.3248 H   0  0  0  0  0  0  0  0  0  0  0  0
   -3.9203   -0.0122   -0.0093 H   0  0  0  0  0  0  0  0  0  0  0  0
   -4.1527    2.6910    1.4771 H   0  0  0  0  0  0  0  0  0  0  0  0
   -3.3649    2.5258   -0.1129 H   0  0  0  0  0  0  0  0  0  0  0  0
   -5.8790    3.2667   -0.0135 H   0  0  0  0  0  0  0  0  0  0  0  0
   -6.2656    1.5599    0.3437 H   0  0  0  0  0  0  0  0  0  0  0  0
   -4.9635    0.9462   -1.8437 H   0  0  0  0  0  0  0  0  0  0  0  0
   -4.8362    2.7087   -2.1409 H   0  0  0  0  0  0  0  0  0  0  0  0
   -7.1001    2.7809   -2.7523 H   0  0  0  0  0  0  0  0  0  0  0  0
   -9.7090    0.1548   -2.5125 H   0  0  0  0  0  0  0  0  0  0  0  0
   -9.3652    1.8478   -3.0054 H   0  0  0  0  0  0  0  0  0  0  0  0
   -7.9272   -1.1197   -1.5059 H   0  0  0  0  0  0  0  0  0  0  0  0
   -5.6689   -1.3528    0.7488 H   0  0  0  0  0  0  0  0  0  0  0  0
   -6.5146   -1.0176    3.6399 H   0  0  0  0  0  0  0  0  0  0  0  0
   -7.0994   -2.2362    2.4767 H   0  0  0  0  0  0  0  0  0  0  0  0
   -8.8778   -1.6984    0.8698 H   0  0  0  0  0  0  0  0  0  0  0  0
  -10.6757   -0.1411    0.1846 H   0  0  0  0  0  0  0  0  0  0  0  0
   -9.0863    2.9004    2.6538 H   0  0  0  0  0  0  0  0  0  0  0  0
   -7.2559    1.4068    3.3913 H   0  0  0  0  0  0  0  0  0  0  0  0
  1  2  1  0
  2  3  1  0
  3  4  1  0
  4  5  1  0
  5  6  1  0
  6  7  1  0
  7  8  2  0
  7  9  1  0
  9 10  1  0
 10 11  1  0
 11 12  2  0
 12 13  1  0
 13 14  2  0
 14 15  1  0
 15 16  2  0
  9 17  1  0
 17 18  1  0
 18 19  2  0
 18 20  1  0
 20 21  1  0
 20 22  1  0
 22 23  1  0
 23 24  2  0
 24 25  1  0
 25 26  2  0
 26 27  1  0
 27 28  2  0
  5 29  1  0
 29 30  2  0
 29 31  1  0
 31 32  1  0
 32 33  1  0
 33 34  1  0
 34 35  1  0
 35 36  1  0
 36 37  1  0
 37 38  1  0
 37 39  2  3
 32 40  1  0
 40 41  2  0
 40 42  1  0
 42 43  1  0
 43 44  1  0
 44 45  2  0
 45 46  1  0
 46 47  2  0
 47 48  1  0
 48 49  2  0
 16 11  1  0
 28 23  1  0
 49 44  1  0
  1 50  1  0
  1 51  1  0
  1 52  1  0
  2 53  1  0
  2 54  1  0
  3 55  1  0
  3 56  1  0
  4 57  1  0
  4 58  1  0
  5 59  1  1
  6 60  1  0
  9 61  1  6
 10 62  1  0
 10 63  1  0
 12 64  1  0
 13 65  1  0
 14 66  1  0
 15 67  1  0
 16 68  1  0
 17 69  1  0
 20 70  1  6
 21 71  1  0
 21 72  1  0
 22 73  1  0
 22 74  1  0
 24 75  1  0
 25 76  1  0
 26 77  1  0
 27 78  1  0
 28 79  1  0
 31 80  1  0
 32 81  1  6
 33 82  1  0
 33 83  1  0
 34 84  1  0
 34 85  1  0
 35 86  1  0
 35 87  1  0
 36 88  1  0
 38 89  1  0
 38 90  1  0
 39 91  1  0
 42 92  1  0
 43 93  1  0
 43 94  1  0
 45 95  1  0
 46 96  1  0
 48 97  1  0
 49 98  1  0
M  END
$$$$
