
     RDKit          3D

 60 64  0  0  0  0  0  0  0  0999 V2000
    7.6178    0.1000    0.5829 C   0  0  0  0  0  0  0  0  0  0  0  0
    6.1213   -0.2035    0.6983 C   0  0  0  0  0  0  0  0  0  0  0  0
    5.4458   -0.5489   -0.6599 C   0  0  1  0  0  0  0  0  0  0  0  0
    5.6436    0.4754   -1.6123 O   0  0  0  0  0  0  0  0  0  0  0  0
    6.0447   -1.8204   -1.2249 C   0  0  0  0  0  0  0  0  0  0  0  0
    7.0627   -1.7683   -1.9659 O   0  0  0  0  0  0  0  0  0  0  0  0
    5.4786   -3.0637   -0.9374 O   0  0  0  0  0  0  0  0  0  0  0  0
    4.4137   -3.2126   -0.0048 C   0  0  0  0  0  0  0  0  0  0  0  0
    3.4514   -2.0570   -0.1088 C   0  0  0  0  0  0  0  0  0  0  0  0
    3.9488   -0.7626   -0.4274 C   0  0  0  0  0  0  0  0  0  0  0  0
    3.0549    0.3302   -0.4344 C   0  0  0  0  0  0  0  0  0  0  0  0
    1.7133    0.0921   -0.1566 C   0  0  0  0  0  0  0  0  0  0  0  0
    1.2583   -1.1424    0.1377 N   0  0  0  0  0  0  0  0  0  0  0  0
   -0.1838   -1.1092    0.4106 C   0  0  0  0  0  0  0  0  0  0  0  0
   -0.5177    0.3484    0.2253 C   0  0  0  0  0  0  0  0  0  0  0  0
   -1.7466    1.0157    0.3329 C   0  0  0  0  0  0  0  0  0  0  0  0
   -2.9955    0.2312    0.6717 C   0  0  0  0  0  0  0  0  0  0  0  0
   -3.7474   -0.1572   -0.6034 C   0  0  0  0  0  0  0  0  0  0  0  0
   -5.3165   -1.1105   -0.2188 Si  0  0  0  0  0  4  0  0  0  0  0  0
   -4.9100   -2.6768    0.7143 C   0  0  0  0  0  0  0  0  0  0  0  0
   -6.1539   -1.5591   -1.8252 C   0  0  0  0  0  0  0  0  0  0  0  0
   -6.4765   -0.0583    0.7991 C   0  0  0  0  0  0  0  0  0  0  0  0
   -1.7562    2.4168    0.0569 C   0  0  0  0  0  0  0  0  0  0  0  0
   -2.9367    3.1900    0.0929 C   0  0  0  0  0  0  0  0  0  0  0  0
   -2.8965    4.5604   -0.1786 C   0  0  0  0  0  0  0  0  0  0  0  0
   -1.6886    5.1840   -0.4928 C   0  0  0  0  0  0  0  0  0  0  0  0
   -0.5084    4.4420   -0.5447 C   0  0  0  0  0  0  0  0  0  0  0  0
   -0.5262    3.0687   -0.2784 C   0  0  0  0  0  0  0  0  0  0  0  0
    0.6367    2.3612   -0.3540 N   0  0  0  0  0  0  0  0  0  0  0  0
    0.6237    1.0324   -0.1063 C   0  0  0  0  0  0  0  0  0  0  0  0
    2.0802   -2.2243    0.1855 C   0  0  0  0  0  0  0  0  0  0  0  0
    1.6176   -3.3562    0.4952 O   0  0  0  0  0  0  0  0  0  0  0  0
    8.1780   -0.8033    0.2640 H   0  0  0  0  0  0  0  0  0  0  0  0
    7.8006    0.9227   -0.1394 H   0  0  0  0  0  0  0  0  0  0  0  0
    8.0066    0.4132    1.5747 H   0  0  0  0  0  0  0  0  0  0  0  0
    5.6217    0.6854    1.1431 H   0  0  0  0  0  0  0  0  0  0  0  0
    5.9865   -1.0439    1.4139 H   0  0  0  0  0  0  0  0  0  0  0  0
    5.5813    1.3559   -1.1585 H   0  0  0  0  0  0  0  0  0  0  0  0
    3.9055   -4.1787   -0.2072 H   0  0  0  0  0  0  0  0  0  0  0  0
    4.8295   -3.2446    1.0242 H   0  0  0  0  0  0  0  0  0  0  0  0
    3.3844    1.3397   -0.6366 H   0  0  0  0  0  0  0  0  0  0  0  0
   -0.3866   -1.4300    1.4547 H   0  0  0  0  0  0  0  0  0  0  0  0
   -0.7337   -1.7359   -0.3236 H   0  0  0  0  0  0  0  0  0  0  0  0
   -2.7273   -0.6889    1.2325 H   0  0  0  0  0  0  0  0  0  0  0  0
   -3.6456    0.8163    1.3536 H   0  0  0  0  0  0  0  0  0  0  0  0
   -3.1002   -0.7953   -1.2422 H   0  0  0  0  0  0  0  0  0  0  0  0
   -4.0271    0.7505   -1.1782 H   0  0  0  0  0  0  0  0  0  0  0  0
   -4.4814   -2.4210    1.7047 H   0  0  0  0  0  0  0  0  0  0  0  0
   -4.1747   -3.2713    0.1343 H   0  0  0  0  0  0  0  0  0  0  0  0
   -5.8359   -3.2707    0.8577 H   0  0  0  0  0  0  0  0  0  0  0  0
   -7.0850   -2.1232   -1.6119 H   0  0  0  0  0  0  0  0  0  0  0  0
   -6.4016   -0.6331   -2.3835 H   0  0  0  0  0  0  0  0  0  0  0  0
   -5.4718   -2.1872   -2.4342 H   0  0  0  0  0  0  0  0  0  0  0  0
   -7.4334   -0.6003    0.9444 H   0  0  0  0  0  0  0  0  0  0  0  0
   -6.6688    0.8970    0.2690 H   0  0  0  0  0  0  0  0  0  0  0  0
   -6.0202    0.1518    1.7878 H   0  0  0  0  0  0  0  0  0  0  0  0
   -3.8984    2.7533    0.3194 H   0  0  0  0  0  0  0  0  0  0  0  0
   -3.8088    5.1421   -0.1473 H   0  0  0  0  0  0  0  0  0  0  0  0
   -1.6681    6.2458   -0.7018 H   0  0  0  0  0  0  0  0  0  0  0  0
    0.4217    4.9364   -0.7971 H   0  0  0  0  0  0  0  0  0  0  0  0
  1  2  1  0
  2  3  1  0
  3  4  1  6
  3  5  1  0
  5  6  2  0
  5  7  1  0
  7  8  1  0
  8  9  1  0
  9 10  2  0
 10 11  1  0
 11 12  2  0
 12 13  1  0
 13 14  1  0
 14 15  1  0
 15 16  2  0
 16 17  1  0
 17 18  1  0
 18 19  1  0
 19 20  1  0
 19 21  1  0
 19 22  1  0
 16 23  1  0
 23 24  2  0
 24 25  1  0
 25 26  2  0
 26 27  1  0
 27 28  2  0
 28 29  1  0
 29 30  2  0
 13 31  1  0
 31 32  2  0
 10  3  1  0
 30 12  1  0
 31  9  1  0
 30 15  1  0
 28 23  1  0
  1 33  1  0
  1 34  1  0
  1 35  1  0
  2 36  1  0
  2 37  1  0
  4 38  1  0
  8 39  1  0
  8 40  1  0
 11 41  1  0
 14 42  1  0
 14 43  1  0
 17 44  1  0
 17 45  1  0
 18 46  1  0
 18 47  1  0
 20 48  1  0
 20 49  1  0
 20 50  1  0
 21 51  1  0
 21 52  1  0
 21 53  1  0
 22 54  1  0
 22 55  1  0
 22 56  1  0
 24 57  1  0
 25 58  1  0
 26 59  1  0
 27 60  1  0
M  END
$$$$
