
     RDKit          3D

 61 65  0  0  0  0  0  0  0  0999 V2000
   -3.7499    1.4546   -1.8281 C   0  0  0  0  0  0  0  0  0  0  0  0
   -3.9028    1.3010   -0.2767 C   0  0  2  0  0  0  0  0  0  0  0  0
   -3.0992    2.4252    0.4271 C   0  0  0  0  0  0  0  0  0  0  0  0
   -1.5779    2.2666    0.1932 C   0  0  0  0  0  0  0  0  0  0  0  0
   -1.0387    0.8443    0.5402 C   0  0  1  0  0  0  0  0  0  0  0  0
   -1.9008   -0.2908   -0.0875 C   0  0  1  0  0  0  0  0  0  0  0  0
   -1.4275   -1.6484    0.4594 C   0  0  0  0  0  0  0  0  0  0  0  0
    0.0650   -1.8122    0.3810 C   0  0  0  0  0  0  0  0  0  0  0  0
    0.9179   -0.7745    0.3113 C   0  0  0  0  0  0  0  0  0  0  0  0
    2.3745   -1.0379    0.3839 C   0  0  0  0  0  0  0  0  0  0  0  0
    3.2757   -0.0367    0.4141 C   0  0  0  0  0  0  0  0  0  0  0  0
    2.8380    1.4005    0.2987 C   0  0  0  0  0  0  0  0  0  0  0  0
    1.4021    1.6230    0.7893 C   0  0  0  0  0  0  0  0  0  0  0  0
    0.4346    0.6517    0.0850 C   0  0  2  0  0  0  0  0  0  0  0  0
    4.6593   -0.2720    0.5094 O   0  0  0  0  0  0  0  0  0  0  0  0
    5.2902   -1.5543    0.5900 C   0  0  0  0  0  0  0  0  0  0  0  0
    5.2506   -2.2688   -0.7684 C   0  0  0  0  0  0  0  0  0  0  0  0
    6.6894   -2.3715   -1.2629 C   0  0  0  0  0  0  0  0  0  0  0  0
    7.4982   -1.4196   -0.4018 C   0  0  0  0  0  0  0  0  0  0  0  0
    6.7662   -1.3683    0.9247 C   0  0  0  0  0  0  0  0  0  0  0  0
   -3.3846   -0.0441    0.2516 C   0  0  2  0  0  0  0  0  0  0  0  0
   -4.4156   -1.0670   -0.2100 C   0  0  0  0  0  0  0  0  0  0  0  0
   -5.7510   -0.2987   -0.2103 C   0  0  0  0  0  0  0  0  0  0  0  0
   -5.4207    1.1957    0.0719 C   0  0  2  0  0  0  0  0  0  0  0  0
   -6.1925    2.0527   -0.7372 O   0  0  0  0  0  0  0  0  0  0  0  0
   -5.6984    1.5069    1.4966 C   0  0  0  0  0  0  0  0  0  0  0  0
   -5.9273    1.7573    2.6537 C   0  0  0  0  0  0  0  0  0  0  0  0
   -4.1262    2.4486   -2.1512 H   0  0  0  0  0  0  0  0  0  0  0  0
   -2.7034    1.3895   -2.1775 H   0  0  0  0  0  0  0  0  0  0  0  0
   -4.3258    0.6834   -2.3800 H   0  0  0  0  0  0  0  0  0  0  0  0
   -3.4312    3.4195    0.0570 H   0  0  0  0  0  0  0  0  0  0  0  0
   -3.2706    2.4082    1.5247 H   0  0  0  0  0  0  0  0  0  0  0  0
   -1.0744    3.0162    0.8390 H   0  0  0  0  0  0  0  0  0  0  0  0
   -1.3228    2.5312   -0.8540 H   0  0  0  0  0  0  0  0  0  0  0  0
   -1.0789    0.7407    1.6495 H   0  0  0  0  0  0  0  0  0  0  0  0
   -1.7578   -0.3156   -1.1885 H   0  0  0  0  0  0  0  0  0  0  0  0
   -1.7283   -1.7593    1.5240 H   0  0  0  0  0  0  0  0  0  0  0  0
   -1.9045   -2.4685   -0.1189 H   0  0  0  0  0  0  0  0  0  0  0  0
    0.4526   -2.8147    0.5225 H   0  0  0  0  0  0  0  0  0  0  0  0
    2.7032   -2.0657    0.4525 H   0  0  0  0  0  0  0  0  0  0  0  0
    2.9184    1.7104   -0.7657 H   0  0  0  0  0  0  0  0  0  0  0  0
    3.5242    2.0413    0.8930 H   0  0  0  0  0  0  0  0  0  0  0  0
    1.1327    2.6760    0.5674 H   0  0  0  0  0  0  0  0  0  0  0  0
    1.3571    1.4741    1.8911 H   0  0  0  0  0  0  0  0  0  0  0  0
    0.4861    0.8464   -1.0101 H   0  0  0  0  0  0  0  0  0  0  0  0
    4.8111   -2.1648    1.3876 H   0  0  0  0  0  0  0  0  0  0  0  0
    4.6414   -1.6969   -1.5025 H   0  0  0  0  0  0  0  0  0  0  0  0
    4.8085   -3.2834   -0.6607 H   0  0  0  0  0  0  0  0  0  0  0  0
    7.0623   -3.4097   -1.1181 H   0  0  0  0  0  0  0  0  0  0  0  0
    6.7700   -2.1037   -2.3389 H   0  0  0  0  0  0  0  0  0  0  0  0
    8.5446   -1.7727   -0.2758 H   0  0  0  0  0  0  0  0  0  0  0  0
    7.5024   -0.4078   -0.8646 H   0  0  0  0  0  0  0  0  0  0  0  0
    7.1117   -2.2094    1.5664 H   0  0  0  0  0  0  0  0  0  0  0  0
    6.9588   -0.4103    1.4553 H   0  0  0  0  0  0  0  0  0  0  0  0
   -3.4503   -0.0314    1.3674 H   0  0  0  0  0  0  0  0  0  0  0  0
   -4.1745   -1.4316   -1.2325 H   0  0  0  0  0  0  0  0  0  0  0  0
   -4.4542   -1.9344    0.4846 H   0  0  0  0  0  0  0  0  0  0  0  0
   -6.4468   -0.7253    0.5467 H   0  0  0  0  0  0  0  0  0  0  0  0
   -6.2338   -0.4094   -1.2064 H   0  0  0  0  0  0  0  0  0  0  0  0
   -7.1497    1.8370   -0.5789 H   0  0  0  0  0  0  0  0  0  0  0  0
   -6.1272    1.9770    3.6693 H   0  0  0  0  0  0  0  0  0  0  0  0
  2  1  1  6
  2  3  1  0
  3  4  1  0
  4  5  1  0
  5  6  1  0
  6  7  1  0
  7  8  1  0
  8  9  2  0
  9 10  1  0
 10 11  2  0
 11 12  1  0
 12 13  1  0
 13 14  1  0
 11 15  1  0
 15 16  1  0
 16 17  1  0
 17 18  1  0
 18 19  1  0
 19 20  1  0
  6 21  1  0
 21 22  1  0
 22 23  1  0
 23 24  1  0
 24 25  1  0
 24 26  1  1
 26 27  3  0
 21  2  1  0
 24  2  1  0
 14  5  1  0
 20 16  1  0
 14  9  1  0
  1 28  1  0
  1 29  1  0
  1 30  1  0
  3 31  1  0
  3 32  1  0
  4 33  1  0
  4 34  1  0
  5 35  1  1
  6 36  1  6
  7 37  1  0
  7 38  1  0
  8 39  1  0
 10 40  1  0
 12 41  1  0
 12 42  1  0
 13 43  1  0
 13 44  1  0
 14 45  1  6
 16 46  1  0
 17 47  1  0
 17 48  1  0
 18 49  1  0
 18 50  1  0
 19 51  1  0
 19 52  1  0
 20 53  1  0
 20 54  1  0
 21 55  1  1
 22 56  1  0
 22 57  1  0
 23 58  1  0
 23 59  1  0
 25 60  1  0
 27 61  1  0
M  END
$$$$
