
     RDKit          3D

 46 49  0  0  0  0  0  0  0  0999 V2000
    0.4592   -0.9162    0.9650 C   0  0  2  0  0  0  0  0  0  0  0  0
   -0.4864   -0.9283   -0.2142 C   0  0  0  0  0  0  0  0  0  0  0  0
   -1.5065    0.1456    0.1752 C   0  0  2  0  0  0  0  0  0  0  0  0
   -0.9040    0.8936    1.2105 O   0  0  0  0  0  0  0  0  0  0  0  0
   -0.1359    0.0173    1.9191 N   0  0  0  0  0  0  0  0  0  0  0  0
   -2.6565   -0.5196    0.6964 O   0  0  0  0  0  0  0  0  0  0  0  0
   -3.7702    0.3474    0.7866 C   0  0  2  0  0  0  0  0  0  0  0  0
   -4.8227   -0.3041    1.6907 C   0  0  0  0  0  0  0  0  0  0  0  0
   -5.9107    0.5604    1.8696 O   0  0  0  0  0  0  0  0  0  0  0  0
   -4.3337    0.6297   -0.6294 C   0  0  1  0  0  0  0  0  0  0  0  0
   -5.0358    1.8470   -0.6045 O   0  0  0  0  0  0  0  0  0  0  0  0
   -3.1935    0.6963   -1.6841 C   0  0  2  0  0  0  0  0  0  0  0  0
   -3.0772   -0.5145   -2.3936 O   0  0  0  0  0  0  0  0  0  0  0  0
   -1.8455    1.0841   -1.0448 C   0  0  1  0  0  0  0  0  0  0  0  0
   -1.9262    2.4252   -0.6260 O   0  0  0  0  0  0  0  0  0  0  0  0
    1.8725   -0.5104    0.5688 C   0  0  0  0  0  0  0  0  0  0  0  0
    2.9336   -1.4177    0.7298 C   0  0  0  0  0  0  0  0  0  0  0  0
    4.2396   -1.0597    0.3621 C   0  0  0  0  0  0  0  0  0  0  0  0
    5.3017   -1.9636    0.5238 C   0  0  0  0  0  0  0  0  0  0  0  0
    6.5987   -1.5962    0.1538 C   0  0  0  0  0  0  0  0  0  0  0  0
    6.8456   -0.3282   -0.3791 C   0  0  0  0  0  0  0  0  0  0  0  0
    5.7971    0.5811   -0.5457 C   0  0  0  0  0  0  0  0  0  0  0  0
    4.4903    0.2245   -0.1780 C   0  0  0  0  0  0  0  0  0  0  0  0
    3.4305    1.1265   -0.3414 C   0  0  0  0  0  0  0  0  0  0  0  0
    2.1337    0.7621    0.0275 C   0  0  0  0  0  0  0  0  0  0  0  0
    0.4681   -1.9253    1.4337 H   0  0  0  0  0  0  0  0  0  0  0  0
   -0.9699   -1.9253   -0.3188 H   0  0  0  0  0  0  0  0  0  0  0  0
    0.0457   -0.7186   -1.1676 H   0  0  0  0  0  0  0  0  0  0  0  0
    0.5973    0.5692    2.4220 H   0  0  0  0  0  0  0  0  0  0  0  0
   -3.4738    1.3062    1.2759 H   0  0  0  0  0  0  0  0  0  0  0  0
   -5.1674   -1.2635    1.2426 H   0  0  0  0  0  0  0  0  0  0  0  0
   -4.3613   -0.5252    2.6794 H   0  0  0  0  0  0  0  0  0  0  0  0
   -6.5524    0.0779    2.4529 H   0  0  0  0  0  0  0  0  0  0  0  0
   -5.0339   -0.1911   -0.9171 H   0  0  0  0  0  0  0  0  0  0  0  0
   -5.6344    1.8510   -1.3968 H   0  0  0  0  0  0  0  0  0  0  0  0
   -3.4468    1.4756   -2.4369 H   0  0  0  0  0  0  0  0  0  0  0  0
   -2.9813   -1.2518   -1.7376 H   0  0  0  0  0  0  0  0  0  0  0  0
   -1.0705    1.0181   -1.8441 H   0  0  0  0  0  0  0  0  0  0  0  0
   -0.9970    2.7734   -0.5850 H   0  0  0  0  0  0  0  0  0  0  0  0
    2.7423   -2.4023    1.1409 H   0  0  0  0  0  0  0  0  0  0  0  0
    5.1294   -2.9511    0.9352 H   0  0  0  0  0  0  0  0  0  0  0  0
    7.4145   -2.2961    0.2803 H   0  0  0  0  0  0  0  0  0  0  0  0
    7.8519   -0.0495   -0.6639 H   0  0  0  0  0  0  0  0  0  0  0  0
    6.0069    1.5598   -0.9608 H   0  0  0  0  0  0  0  0  0  0  0  0
    3.6041    2.1126   -0.7556 H   0  0  0  0  0  0  0  0  0  0  0  0
    1.3308    1.4737   -0.1137 H   0  0  0  0  0  0  0  0  0  0  0  0
  1  2  1  0
  2  3  1  0
  3  4  1  1
  4  5  1  0
  3  6  1  0
  6  7  1  0
  7  8  1  0
  8  9  1  0
  7 10  1  0
 10 11  1  0
 10 12  1  0
 12 13  1  0
 12 14  1  0
 14 15  1  0
  1 16  1  0
 16 17  2  0
 17 18  1  0
 18 19  2  0
 19 20  1  0
 20 21  2  0
 21 22  1  0
 22 23  2  0
 23 24  1  0
 24 25  2  0
  5  1  1  0
 25 16  1  0
 14  3  1  0
 23 18  1  0
  1 26  1  1
  2 27  1  0
  2 28  1  0
  5 29  1  0
  7 30  1  1
  8 31  1  0
  8 32  1  0
  9 33  1  0
 10 34  1  6
 11 35  1  0
 12 36  1  6
 13 37  1  0
 14 38  1  6
 15 39  1  0
 17 40  1  0
 19 41  1  0
 20 42  1  0
 21 43  1  0
 22 44  1  0
 24 45  1  0
 25 46  1  0
M  END
$$$$
