
     RDKit          3D

 40 43  0  0  0  0  0  0  0  0999 V2000
   -6.8210    2.9606   -1.6125 Cl  0  0  0  0  0  0  0  0  0  0  0  0
   -5.6011    1.8055   -1.1081 C   0  0  0  0  0  0  0  0  0  0  0  0
   -5.9821    0.6043   -0.5025 C   0  0  0  0  0  0  0  0  0  0  0  0
   -5.0106   -0.3181   -0.1018 C   0  0  0  0  0  0  0  0  0  0  0  0
   -3.6470   -0.0426   -0.2914 C   0  0  0  0  0  0  0  0  0  0  0  0
   -2.6654   -1.0144    0.1099 N   0  0  0  0  0  0  0  0  0  0  0  0
   -1.3196   -0.6700    0.4826 C   0  0  0  0  0  0  0  0  0  0  0  0
   -1.0907    0.5052    1.1232 N   0  0  0  0  0  0  0  0  0  0  0  0
    0.1224    0.8615    1.5386 N   0  0  0  0  0  0  0  0  0  0  0  0
    1.2113    0.0689    1.3635 C   0  0  0  0  0  0  0  0  0  0  0  0
    2.5426    0.5921    1.8474 C   0  0  0  0  0  0  0  0  0  0  0  0
    3.3710    1.1221    0.7040 C   0  0  0  0  0  0  0  0  0  0  0  0
    4.6364    0.5820    0.4266 C   0  0  0  0  0  0  0  0  0  0  0  0
    5.3882    1.0961   -0.6327 C   0  0  0  0  0  0  0  0  0  0  0  0
    4.9005    2.1196   -1.3825 N   0  0  0  0  0  0  0  0  0  0  0  0
    3.6841    2.6709   -1.1296 C   0  0  0  0  0  0  0  0  0  0  0  0
    2.8996    2.1871   -0.0801 C   0  0  0  0  0  0  0  0  0  0  0  0
    1.0547   -1.1724    0.7026 C   0  0  0  0  0  0  0  0  0  0  0  0
    2.1392   -2.0457    0.4738 C   0  0  0  0  0  0  0  0  0  0  0  0
    1.9498   -3.2513   -0.2023 C   0  0  0  0  0  0  0  0  0  0  0  0
    0.6847   -3.6048   -0.6646 C   0  0  0  0  0  0  0  0  0  0  0  0
   -0.4038   -2.7602   -0.4461 C   0  0  0  0  0  0  0  0  0  0  0  0
   -0.2382   -1.5449    0.2497 C   0  0  0  0  0  0  0  0  0  0  0  0
   -3.2727    1.1606   -0.9189 C   0  0  0  0  0  0  0  0  0  0  0  0
   -4.2465    2.0808   -1.3190 C   0  0  0  0  0  0  0  0  0  0  0  0
   -7.0298    0.3832   -0.3432 H   0  0  0  0  0  0  0  0  0  0  0  0
   -5.3198   -1.2451    0.3645 H   0  0  0  0  0  0  0  0  0  0  0  0
   -2.9853   -1.9971    0.2633 H   0  0  0  0  0  0  0  0  0  0  0  0
    2.3751    1.4210    2.5692 H   0  0  0  0  0  0  0  0  0  0  0  0
    3.0800   -0.1975    2.4148 H   0  0  0  0  0  0  0  0  0  0  0  0
    5.0394   -0.2270    1.0227 H   0  0  0  0  0  0  0  0  0  0  0  0
    6.3623    0.6823   -0.8569 H   0  0  0  0  0  0  0  0  0  0  0  0
    3.3260    3.4873   -1.7424 H   0  0  0  0  0  0  0  0  0  0  0  0
    1.9346    2.6363    0.1183 H   0  0  0  0  0  0  0  0  0  0  0  0
    3.1379   -1.8121    0.8094 H   0  0  0  0  0  0  0  0  0  0  0  0
    2.7901   -3.9117   -0.3741 H   0  0  0  0  0  0  0  0  0  0  0  0
    0.5470   -4.5362   -1.1988 H   0  0  0  0  0  0  0  0  0  0  0  0
   -1.3638   -3.0621   -0.8410 H   0  0  0  0  0  0  0  0  0  0  0  0
   -2.2321    1.3817   -1.1170 H   0  0  0  0  0  0  0  0  0  0  0  0
   -3.9473    3.0038   -1.7990 H   0  0  0  0  0  0  0  0  0  0  0  0
  1  2  1  0
  2  3  2  0
  3  4  1  0
  4  5  2  0
  5  6  1  0
  6  7  1  0
  7  8  2  0
  8  9  1  0
  9 10  2  0
 10 11  1  0
 11 12  1  0
 12 13  2  0
 13 14  1  0
 14 15  2  0
 15 16  1  0
 16 17  2  0
 10 18  1  0
 18 19  2  0
 19 20  1  0
 20 21  2  0
 21 22  1  0
 22 23  2  0
  5 24  1  0
 24 25  2  0
 25  2  1  0
 23  7  1  0
 17 12  1  0
 23 18  1  0
  3 26  1  0
  4 27  1  0
  6 28  1  0
 11 29  1  0
 11 30  1  0
 13 31  1  0
 14 32  1  0
 16 33  1  0
 17 34  1  0
 19 35  1  0
 20 36  1  0
 21 37  1  0
 22 38  1  0
 24 39  1  0
 25 40  1  0
M  END
$$$$
