
     RDKit          3D

138145  0  0  0  0  0  0  0  0999 V2000
   -0.6781   -0.1347   -1.7512 C   0  0  0  0  0  0  0  0  0  0  0  0
    0.2729   -0.9158   -2.3370 C   0  0  0  0  0  0  0  0  0  0  0  0
    0.2514   -0.9737   -3.8466 C   0  0  0  0  0  0  0  0  0  0  0  0
    1.3577   -1.7427   -1.6238 C   0  0  1  0  0  0  0  0  0  0  0  0
    1.6128   -1.2841   -0.3029 O   0  0  0  0  0  0  0  0  0  0  0  0
    2.9056   -0.7257   -0.1480 C   0  0  1  0  0  0  0  0  0  0  0  0
    2.9647    0.6809   -0.7899 C   0  0  0  0  0  0  0  0  0  0  0  0
    4.0275    1.5817   -0.1238 C   0  0  2  0  0  0  0  0  0  0  0  0
    4.5875    2.4622   -1.0838 O   0  0  0  0  0  0  0  0  0  0  0  0
    3.8394    3.6560   -1.1566 C   0  0  0  0  0  0  0  0  0  0  0  0
    5.1454    0.7149    0.4756 C   0  0  1  0  0  0  0  0  0  0  0  0
    6.0872    1.5483    1.1380 O   0  0  0  0  0  0  0  0  0  0  0  0
    7.3079    1.6193    0.4264 C   0  0  1  0  0  0  0  0  0  0  0  0
    8.1546    2.7648    1.0096 C   0  0  0  0  0  0  0  0  0  0  0  0
    9.6655    2.5593    0.7512 C   0  0  2  0  0  0  0  0  0  0  0  0
   10.3012    3.8096    0.5421 O   0  0  0  0  0  0  0  0  0  0  0  0
   10.7098    4.3682    1.7719 C   0  0  0  0  0  0  0  0  0  0  0  0
    9.8760    1.6823   -0.4915 C   0  0  1  0  0  0  0  0  0  0  0  0
   11.2511    1.4653   -0.6797 O   0  0  0  0  0  0  0  0  0  0  0  0
    9.1343    0.3231   -0.3063 C   0  0  2  0  0  0  0  0  0  0  0  0
    8.7356   -0.3027   -1.6472 C   0  0  0  0  0  0  0  0  0  0  0  0
    8.0047    0.3920    0.5587 O   0  0  0  0  0  0  0  0  0  0  0  0
    4.5242   -0.2698    1.5097 C   0  0  2  0  0  0  0  0  0  0  0  0
    5.3829   -1.5258    1.6911 C   0  0  0  0  0  0  0  0  0  0  0  0
    3.1717   -0.6296    1.2386 O   0  0  0  0  0  0  0  0  0  0  0  0
    1.0360   -3.2654   -1.6240 C   0  0  1  0  0  0  0  0  0  0  0  0
    2.2039   -4.0902   -1.0617 C   0  0  0  0  0  0  0  0  0  0  0  0
   -0.2703   -3.6307   -0.9528 C   0  0  0  0  0  0  0  0  0  0  0  0
   -0.4584   -3.6210    0.3741 C   0  0  0  0  0  0  0  0  0  0  0  0
   -1.8002   -3.8409    0.9455 C   0  0  0  0  0  0  0  0  0  0  0  0
   -2.5859   -4.8892    0.6427 C   0  0  0  0  0  0  0  0  0  0  0  0
   -2.0794   -6.2276    0.2522 C   0  0  0  0  0  0  0  0  0  0  0  0
   -3.0826   -7.1768    0.5628 O   0  0  0  0  0  0  0  0  0  0  0  0
   -4.0697   -6.5255    1.3507 C   0  0  2  0  0  0  0  0  0  0  0  0
   -5.4782   -7.1935    1.1549 C   0  0  2  0  0  0  0  0  0  0  0  0
   -5.4606   -8.0818    0.0661 O   0  0  0  0  0  0  0  0  0  0  0  0
   -6.6027   -6.1920    0.9215 C   0  0  0  0  0  0  0  0  0  0  0  0
   -7.9976   -6.4928    1.3970 C   0  0  0  0  0  0  0  0  0  0  0  0
   -6.3668   -5.0595    0.2333 C   0  0  0  0  0  0  0  0  0  0  0  0
   -4.9613   -4.7565   -0.2004 C   0  0  1  0  0  0  0  0  0  0  0  0
   -4.8405   -3.3948   -0.8378 C   0  0  0  0  0  0  0  0  0  0  0  0
   -4.3233   -3.3087   -1.9846 O   0  0  0  0  0  0  0  0  0  0  0  0
   -5.3026   -2.2300   -0.2099 O   0  0  0  0  0  0  0  0  0  0  0  0
   -4.4108   -1.2632    0.3551 C   0  0  1  0  0  0  0  0  0  0  0  0
   -3.1549   -1.0691   -0.4853 C   0  0  0  0  0  0  0  0  0  0  0  0
   -2.4030    0.1196    0.1062 C   0  0  1  0  0  0  0  0  0  0  0  0
   -0.9107    0.0794   -0.2713 C   0  0  0  0  0  0  0  0  0  0  0  0
   -3.0245    1.3312   -0.2811 O   0  0  0  0  0  0  0  0  0  0  0  0
   -4.4672    1.3221   -0.1916 C   0  0  1  0  0  0  0  0  0  0  0  0
   -5.0997    0.1067    0.5916 C   0  0  0  0  0  0  0  0  0  0  0  0
   -4.9146    2.5004    0.4626 O   0  0  0  0  0  0  0  0  0  0  0  0
   -4.3671    3.6876   -0.1044 C   0  0  2  0  0  0  0  0  0  0  0  0
   -4.9424    4.9038    0.6807 C   0  0  0  0  0  0  0  0  0  0  0  0
   -4.2995    6.2476    0.2376 C   0  0  0  0  0  0  0  0  0  0  0  0
   -4.4387    7.3820    1.2757 C   0  0  0  0  0  0  0  0  0  0  0  0
   -5.6278    7.1629    2.2128 C   0  0  0  0  0  0  0  0  0  0  0  0
   -5.4857    5.8470    2.9992 C   0  0  0  0  0  0  0  0  0  0  0  0
   -4.7728    4.7294    2.2079 C   0  0  0  0  0  0  0  0  0  0  0  0
   -4.6690    3.7928   -1.6471 C   0  0  1  0  0  0  0  0  0  0  0  0
   -3.4380    4.2637   -2.4350 C   0  0  0  0  0  0  0  0  0  0  0  0
   -5.1389    2.4892   -2.2477 C   0  0  0  0  0  0  0  0  0  0  0  0
   -5.0307    1.3351   -1.5891 C   0  0  0  0  0  0  0  0  0  0  0  0
   -4.0169   -5.0199    1.0097 C   0  0  2  0  0  0  0  0  0  0  0  0
   -4.3826   -4.2190    2.1142 O   0  0  0  0  0  0  0  0  0  0  0  0
   -1.3414    0.4294   -2.4040 H   0  0  0  0  0  0  0  0  0  0  0  0
   -0.7280   -1.3667   -4.1936 H   0  0  0  0  0  0  0  0  0  0  0  0
    1.0479   -1.6350   -4.2474 H   0  0  0  0  0  0  0  0  0  0  0  0
    0.4053    0.0438   -4.2649 H   0  0  0  0  0  0  0  0  0  0  0  0
    2.2617   -1.6454   -2.2729 H   0  0  0  0  0  0  0  0  0  0  0  0
    3.6686   -1.3947   -0.6153 H   0  0  0  0  0  0  0  0  0  0  0  0
    3.1894    0.5695   -1.8733 H   0  0  0  0  0  0  0  0  0  0  0  0
    1.9751    1.1781   -0.7020 H   0  0  0  0  0  0  0  0  0  0  0  0
    3.5542    2.1297    0.7292 H   0  0  0  0  0  0  0  0  0  0  0  0
    2.7709    3.4550   -1.3920 H   0  0  0  0  0  0  0  0  0  0  0  0
    3.9277    4.2353   -0.2112 H   0  0  0  0  0  0  0  0  0  0  0  0
    4.2517    4.2821   -1.9741 H   0  0  0  0  0  0  0  0  0  0  0  0
    5.5927    0.1155   -0.3578 H   0  0  0  0  0  0  0  0  0  0  0  0
    7.1085    1.8564   -0.6471 H   0  0  0  0  0  0  0  0  0  0  0  0
    7.9891    2.8338    2.1074 H   0  0  0  0  0  0  0  0  0  0  0  0
    7.8129    3.7226    0.5586 H   0  0  0  0  0  0  0  0  0  0  0  0
   10.1061    1.9999    1.6142 H   0  0  0  0  0  0  0  0  0  0  0  0
   11.5124    3.7550    2.2376 H   0  0  0  0  0  0  0  0  0  0  0  0
   11.1269    5.3779    1.5802 H   0  0  0  0  0  0  0  0  0  0  0  0
    9.8536    4.4853    2.4723 H   0  0  0  0  0  0  0  0  0  0  0  0
    9.4606    2.2321   -1.3705 H   0  0  0  0  0  0  0  0  0  0  0  0
   11.3691    1.1731   -1.6208 H   0  0  0  0  0  0  0  0  0  0  0  0
    9.8481   -0.3813    0.1750 H   0  0  0  0  0  0  0  0  0  0  0  0
    8.2250   -1.2731   -1.4706 H   0  0  0  0  0  0  0  0  0  0  0  0
    8.0464    0.3625   -2.2080 H   0  0  0  0  0  0  0  0  0  0  0  0
    9.6372   -0.4890   -2.2680 H   0  0  0  0  0  0  0  0  0  0  0  0
    4.5106    0.2486    2.4940 H   0  0  0  0  0  0  0  0  0  0  0  0
    5.4842   -2.0812    0.7353 H   0  0  0  0  0  0  0  0  0  0  0  0
    4.9145   -2.1955    2.4431 H   0  0  0  0  0  0  0  0  0  0  0  0
    6.3950   -1.2475    2.0531 H   0  0  0  0  0  0  0  0  0  0  0  0
    0.9322   -3.5728   -2.6886 H   0  0  0  0  0  0  0  0  0  0  0  0
    1.9655   -5.1744   -1.1117 H   0  0  0  0  0  0  0  0  0  0  0  0
    3.1210   -3.9102   -1.6620 H   0  0  0  0  0  0  0  0  0  0  0  0
    2.4170   -3.8195   -0.0062 H   0  0  0  0  0  0  0  0  0  0  0  0
   -1.0934   -3.9152   -1.5988 H   0  0  0  0  0  0  0  0  0  0  0  0
    0.3219   -3.2563    1.0286 H   0  0  0  0  0  0  0  0  0  0  0  0
   -2.1924   -3.0399    1.5559 H   0  0  0  0  0  0  0  0  0  0  0  0
   -1.1573   -6.4767    0.8205 H   0  0  0  0  0  0  0  0  0  0  0  0
   -1.8648   -6.2521   -0.8365 H   0  0  0  0  0  0  0  0  0  0  0  0
   -3.7806   -6.6652    2.4181 H   0  0  0  0  0  0  0  0  0  0  0  0
   -5.7171   -7.7619    2.0851 H   0  0  0  0  0  0  0  0  0  0  0  0
   -5.0460   -8.9254    0.3866 H   0  0  0  0  0  0  0  0  0  0  0  0
   -8.0462   -7.4836    1.8953 H   0  0  0  0  0  0  0  0  0  0  0  0
   -8.3218   -5.7159    2.1211 H   0  0  0  0  0  0  0  0  0  0  0  0
   -8.6963   -6.5019    0.5338 H   0  0  0  0  0  0  0  0  0  0  0  0
   -7.1694   -4.3497    0.0468 H   0  0  0  0  0  0  0  0  0  0  0  0
   -4.7140   -5.4975   -0.9968 H   0  0  0  0  0  0  0  0  0  0  0  0
   -4.0964   -1.6573    1.3462 H   0  0  0  0  0  0  0  0  0  0  0  0
   -2.5332   -1.9707   -0.4924 H   0  0  0  0  0  0  0  0  0  0  0  0
   -3.4169   -0.8683   -1.5460 H   0  0  0  0  0  0  0  0  0  0  0  0
   -2.4208    0.0689    1.2210 H   0  0  0  0  0  0  0  0  0  0  0  0
   -0.4918   -0.7483    0.3261 H   0  0  0  0  0  0  0  0  0  0  0  0
   -0.4191    1.0233    0.0452 H   0  0  0  0  0  0  0  0  0  0  0  0
   -5.0333    0.3343    1.6793 H   0  0  0  0  0  0  0  0  0  0  0  0
   -6.1873    0.0306    0.3687 H   0  0  0  0  0  0  0  0  0  0  0  0
   -3.2668    3.6932    0.0726 H   0  0  0  0  0  0  0  0  0  0  0  0
   -6.0359    4.9505    0.4736 H   0  0  0  0  0  0  0  0  0  0  0  0
   -3.2138    6.1048    0.0481 H   0  0  0  0  0  0  0  0  0  0  0  0
   -4.7700    6.5750   -0.7146 H   0  0  0  0  0  0  0  0  0  0  0  0
   -3.5107    7.4418    1.8867 H   0  0  0  0  0  0  0  0  0  0  0  0
   -4.5546    8.3551    0.7510 H   0  0  0  0  0  0  0  0  0  0  0  0
   -5.7044    8.0136    2.9239 H   0  0  0  0  0  0  0  0  0  0  0  0
   -6.5640    7.1414    1.6126 H   0  0  0  0  0  0  0  0  0  0  0  0
   -6.5010    5.5020    3.2935 H   0  0  0  0  0  0  0  0  0  0  0  0
   -4.9183    6.0377    3.9362 H   0  0  0  0  0  0  0  0  0  0  0  0
   -3.6878    4.7371    2.4552 H   0  0  0  0  0  0  0  0  0  0  0  0
   -5.1826    3.7538    2.5465 H   0  0  0  0  0  0  0  0  0  0  0  0
   -5.4876    4.5242   -1.8226 H   0  0  0  0  0  0  0  0  0  0  0  0
   -2.5967    3.5484   -2.3070 H   0  0  0  0  0  0  0  0  0  0  0  0
   -3.1082    5.2661   -2.1006 H   0  0  0  0  0  0  0  0  0  0  0  0
   -3.6794    4.3370   -3.5174 H   0  0  0  0  0  0  0  0  0  0  0  0
   -5.5465    2.4877   -3.2546 H   0  0  0  0  0  0  0  0  0  0  0  0
   -5.3845    0.4206   -2.0573 H   0  0  0  0  0  0  0  0  0  0  0  0
   -3.7805   -4.4366    2.8735 H   0  0  0  0  0  0  0  0  0  0  0  0
  1  2  2  0
  2  3  1  0
  2  4  1  0
  4  5  1  0
  5  6  1  0
  6  7  1  0
  7  8  1  0
  8  9  1  0
  9 10  1  0
  8 11  1  0
 11 12  1  0
 12 13  1  0
 13 14  1  0
 14 15  1  0
 15 16  1  0
 16 17  1  0
 15 18  1  0
 18 19  1  0
 18 20  1  0
 20 21  1  0
 20 22  1  0
 11 23  1  0
 23 24  1  0
 23 25  1  0
  4 26  1  0
 26 27  1  0
 26 28  1  0
 28 29  2  0
 29 30  1  0
 30 31  2  0
 31 32  1  0
 32 33  1  0
 33 34  1  0
 34 35  1  0
 35 36  1  0
 35 37  1  0
 37 38  1  0
 37 39  2  0
 39 40  1  0
 40 41  1  0
 41 42  2  0
 41 43  1  0
 43 44  1  0
 44 45  1  0
 45 46  1  0
 46 47  1  0
 46 48  1  0
 49 48  1  6
 49 50  1  0
 49 51  1  0
 51 52  1  0
 52 53  1  0
 53 54  1  0
 54 55  1  0
 55 56  1  0
 56 57  1  0
 57 58  1  0
 52 59  1  0
 59 60  1  0
 59 61  1  0
 61 62  2  0
 40 63  1  0
 63 64  1  1
 47  1  1  0
 62 49  1  0
 25  6  1  0
 63 31  1  0
 22 13  1  0
 63 34  1  0
 50 44  1  0
 58 53  1  0
  1 65  1  0
  3 66  1  0
  3 67  1  0
  3 68  1  0
  4 69  1  6
  6 70  1  6
  7 71  1  0
  7 72  1  0
  8 73  1  1
 10 74  1  0
 10 75  1  0
 10 76  1  0
 11 77  1  6
 13 78  1  6
 14 79  1  0
 14 80  1  0
 15 81  1  1
 17 82  1  0
 17 83  1  0
 17 84  1  0
 18 85  1  6
 19 86  1  0
 20 87  1  1
 21 88  1  0
 21 89  1  0
 21 90  1  0
 23 91  1  1
 24 92  1  0
 24 93  1  0
 24 94  1  0
 26 95  1  6
 27 96  1  0
 27 97  1  0
 27 98  1  0
 28 99  1  0
 29100  1  0
 30101  1  0
 32102  1  0
 32103  1  0
 34104  1  1
 35105  1  1
 36106  1  0
 38107  1  0
 38108  1  0
 38109  1  0
 39110  1  0
 40111  1  6
 44112  1  1
 45113  1  0
 45114  1  0
 46115  1  1
 47116  1  0
 47117  1  0
 50118  1  0
 50119  1  0
 52120  1  6
 53121  1  0
 54122  1  0
 54123  1  0
 55124  1  0
 55125  1  0
 56126  1  0
 56127  1  0
 57128  1  0
 57129  1  0
 58130  1  0
 58131  1  0
 59132  1  1
 60133  1  0
 60134  1  0
 60135  1  0
 61136  1  0
 62137  1  0
 64138  1  0
M  END
$$$$
