
     RDKit          3D

 23 23  0  0  0  0  0  0  0  0999 V2000
   -4.3389   -0.3500   -0.3820 O   0  0  0  0  0  0  0  0  0  0  0  0
   -3.3813   -1.1174   -1.0375 C   0  0  0  0  0  0  0  0  0  0  0  0
   -3.3467   -1.1414   -2.2968 O   0  0  0  0  0  0  0  0  0  0  0  0
   -2.3743   -1.8897   -0.2473 C   0  0  0  0  0  0  0  0  0  0  0  0
   -1.0703   -1.2348   -0.3131 N   0  0  0  0  0  0  0  0  0  0  0  0
   -0.7748   -0.0386    0.4277 C   0  0  0  0  0  0  0  0  0  0  0  0
   -1.6943    0.5372    1.0719 O   0  0  0  0  0  0  0  0  0  0  0  0
    0.5892    0.5433    0.4347 C   0  0  0  0  0  0  0  0  0  0  0  0
    1.7253   -0.2583    0.2118 C   0  0  0  0  0  0  0  0  0  0  0  0
    3.0089    0.3070    0.2276 C   0  0  0  0  0  0  0  0  0  0  0  0
    4.1353   -0.4827    0.0070 O   0  0  0  0  0  0  0  0  0  0  0  0
    3.1644    1.6744    0.4707 C   0  0  0  0  0  0  0  0  0  0  0  0
    2.0456    2.4758    0.7052 C   0  0  0  0  0  0  0  0  0  0  0  0
    0.7654    1.9154    0.6920 C   0  0  0  0  0  0  0  0  0  0  0  0
   -5.0202    0.1877   -0.9044 H   0  0  0  0  0  0  0  0  0  0  0  0
   -2.2949   -2.9146   -0.6698 H   0  0  0  0  0  0  0  0  0  0  0  0
   -2.6999   -1.9845    0.8111 H   0  0  0  0  0  0  0  0  0  0  0  0
   -0.3601   -1.6337   -0.9663 H   0  0  0  0  0  0  0  0  0  0  0  0
    1.6276   -1.3236    0.0514 H   0  0  0  0  0  0  0  0  0  0  0  0
    4.0586   -1.4773   -0.1714 H   0  0  0  0  0  0  0  0  0  0  0  0
    4.1534    2.1147    0.4831 H   0  0  0  0  0  0  0  0  0  0  0  0
    2.1702    3.5338    0.8972 H   0  0  0  0  0  0  0  0  0  0  0  0
   -0.0882    2.5575    0.8716 H   0  0  0  0  0  0  0  0  0  0  0  0
  1  2  1  0
  2  3  2  0
  2  4  1  0
  4  5  1  0
  5  6  1  0
  6  7  2  0
  6  8  1  0
  8  9  2  0
  9 10  1  0
 10 11  1  0
 10 12  2  0
 12 13  1  0
 13 14  2  0
 14  8  1  0
  1 15  1  0
  4 16  1  0
  4 17  1  0
  5 18  1  0
  9 19  1  0
 11 20  1  0
 12 21  1  0
 13 22  1  0
 14 23  1  0
M  END
$$$$
