
     RDKit          3D

 23 23  0  0  0  0  0  0  0  0999 V2000
   -1.8297   -0.5301   -0.1435 C   0  0  1  0  0  0  0  0  0  0  0  0
   -3.1654   -0.5561   -0.7425 N   0  0  0  0  0  0  0  0  0  0  0  0
   -0.8230    0.1810   -1.0726 C   0  0  0  0  0  0  0  0  0  0  0  0
    0.5881    0.0736   -0.5512 C   0  0  0  0  0  0  0  0  0  0  0  0
    1.3374   -1.0933   -0.7752 C   0  0  0  0  0  0  0  0  0  0  0  0
    2.6347   -1.2066   -0.2663 C   0  0  0  0  0  0  0  0  0  0  0  0
    3.1910   -0.1597    0.4755 C   0  0  0  0  0  0  0  0  0  0  0  0
    5.1467   -0.3342    1.2451 I   0  0  0  0  0  0  0  0  0  0  0  0
    2.4474    1.0011    0.7104 C   0  0  0  0  0  0  0  0  0  0  0  0
    1.1500    1.1178    0.2025 C   0  0  0  0  0  0  0  0  0  0  0  0
   -1.8997    0.1425    1.1993 C   0  0  0  0  0  0  0  0  0  0  0  0
   -2.3783    1.4455    1.3036 O   0  0  0  0  0  0  0  0  0  0  0  0
   -1.5109   -0.4672    2.2314 O   0  0  0  0  0  0  0  0  0  0  0  0
   -1.4973   -1.5834    0.0012 H   0  0  0  0  0  0  0  0  0  0  0  0
   -3.4417    0.4134   -1.0239 H   0  0  0  0  0  0  0  0  0  0  0  0
   -3.1299   -1.1335   -1.6142 H   0  0  0  0  0  0  0  0  0  0  0  0
   -0.8674   -0.2803   -2.0836 H   0  0  0  0  0  0  0  0  0  0  0  0
   -1.1069    1.2495   -1.1978 H   0  0  0  0  0  0  0  0  0  0  0  0
    0.9153   -1.9145   -1.3414 H   0  0  0  0  0  0  0  0  0  0  0  0
    3.2053   -2.1085   -0.4459 H   0  0  0  0  0  0  0  0  0  0  0  0
    2.8728    1.8112    1.2884 H   0  0  0  0  0  0  0  0  0  0  0  0
    0.5828    2.0191    0.3995 H   0  0  0  0  0  0  0  0  0  0  0  0
   -2.4213    1.9127    2.2012 H   0  0  0  0  0  0  0  0  0  0  0  0
  1  2  1  0
  1  3  1  0
  3  4  1  0
  4  5  2  0
  5  6  1  0
  6  7  2  0
  7  8  1  0
  7  9  1  0
  9 10  2  0
  1 11  1  0
 11 12  1  0
 11 13  2  0
 10  4  1  0
  1 14  1  1
  2 15  1  0
  2 16  1  0
  3 17  1  0
  3 18  1  0
  5 19  1  0
  6 20  1  0
  9 21  1  0
 10 22  1  0
 12 23  1  0
M  END
$$$$
