
     RDKit          3D

 27 27  0  0  0  0  0  0  0  0999 V2000
   -3.5896    1.0384   -0.0244 C   0  0  0  0  0  0  0  0  0  0  0  0
   -2.5805    0.3158   -0.8035 N   0  0  0  0  0  0  0  0  0  0  0  0
   -1.3146    0.1463   -0.0621 C   0  0  1  0  0  0  0  0  0  0  0  0
   -1.3795   -1.0774    0.8754 C   0  0  0  0  0  0  0  0  0  0  0  0
   -0.1592    0.0102   -1.0802 C   0  0  1  0  0  0  0  0  0  0  0  0
   -0.1864    1.1047   -1.9614 O   0  0  0  0  0  0  0  0  0  0  0  0
    1.1910   -0.0530   -0.3924 C   0  0  0  0  0  0  0  0  0  0  0  0
    1.8983   -1.2667   -0.3295 C   0  0  0  0  0  0  0  0  0  0  0  0
    3.1340   -1.3308    0.3218 C   0  0  0  0  0  0  0  0  0  0  0  0
    3.6725   -0.1875    0.9176 C   0  0  0  0  0  0  0  0  0  0  0  0
    2.9755    1.0222    0.8648 C   0  0  0  0  0  0  0  0  0  0  0  0
    1.7394    1.0913    0.2151 C   0  0  0  0  0  0  0  0  0  0  0  0
   -3.2189    2.0501    0.2470 H   0  0  0  0  0  0  0  0  0  0  0  0
   -4.5039    1.1664   -0.6411 H   0  0  0  0  0  0  0  0  0  0  0  0
   -3.8656    0.4792    0.8940 H   0  0  0  0  0  0  0  0  0  0  0  0
   -2.9701   -0.6172   -1.0768 H   0  0  0  0  0  0  0  0  0  0  0  0
   -1.1147    1.0491    0.5601 H   0  0  0  0  0  0  0  0  0  0  0  0
   -1.5000   -2.0142    0.2904 H   0  0  0  0  0  0  0  0  0  0  0  0
   -0.4532   -1.1518    1.4828 H   0  0  0  0  0  0  0  0  0  0  0  0
   -2.2293   -0.9870    1.5817 H   0  0  0  0  0  0  0  0  0  0  0  0
   -0.3303   -0.9232   -1.6680 H   0  0  0  0  0  0  0  0  0  0  0  0
    0.3887    0.8650   -2.7349 H   0  0  0  0  0  0  0  0  0  0  0  0
    1.4921   -2.1640   -0.7796 H   0  0  0  0  0  0  0  0  0  0  0  0
    3.6733   -2.2682    0.3664 H   0  0  0  0  0  0  0  0  0  0  0  0
    4.6288   -0.2395    1.4218 H   0  0  0  0  0  0  0  0  0  0  0  0
    3.3924    1.9066    1.3290 H   0  0  0  0  0  0  0  0  0  0  0  0
    1.2096    2.0353    0.1859 H   0  0  0  0  0  0  0  0  0  0  0  0
  1  2  1  0
  2  3  1  0
  3  4  1  0
  3  5  1  0
  5  6  1  0
  5  7  1  0
  7  8  2  0
  8  9  1  0
  9 10  2  0
 10 11  1  0
 11 12  2  0
 12  7  1  0
  1 13  1  0
  1 14  1  0
  1 15  1  0
  2 16  1  0
  3 17  1  1
  4 18  1  0
  4 19  1  0
  4 20  1  0
  5 21  1  6
  6 22  1  0
  8 23  1  0
  9 24  1  0
 10 25  1  0
 11 26  1  0
 12 27  1  0
M  END
$$$$
