
     RDKit          3D

 51 54  0  0  0  0  0  0  0  0999 V2000
   -2.6754    1.0178    3.5233 C   0  0  0  0  0  0  0  0  0  0  0  0
   -1.4462    0.7013    2.7149 C   0  0  0  0  0  0  0  0  0  0  0  0
   -0.1803    0.8258    3.3093 C   0  0  0  0  0  0  0  0  0  0  0  0
    0.9772    0.5378    2.5849 C   0  0  0  0  0  0  0  0  0  0  0  0
    0.8937    0.1415    1.2415 C   0  0  0  0  0  0  0  0  0  0  0  0
    2.0717   -0.1732    0.4783 N   0  0  0  0  0  0  0  0  0  0  0  0
    3.3466    0.4604    0.6792 C   0  0  0  0  0  0  0  0  0  0  0  0
    3.4011    1.5908    1.2370 O   0  0  0  0  0  0  0  0  0  0  0  0
    4.5959   -0.1747    0.1927 C   0  0  0  0  0  0  0  0  0  0  0  0
    4.6477   -1.5553   -0.0690 C   0  0  0  0  0  0  0  0  0  0  0  0
    5.8339   -2.1480   -0.5058 C   0  0  0  0  0  0  0  0  0  0  0  0
    6.9807   -1.3743   -0.6915 C   0  0  0  0  0  0  0  0  0  0  0  0
    6.9494    0.0098   -0.4545 C   0  0  0  0  0  0  0  0  0  0  0  0
    5.7597    0.5968    0.0129 C   0  0  0  0  0  0  0  0  0  0  0  0
    8.2004    0.8394   -0.6032 C   0  0  0  0  0  0  0  0  0  0  0  0
    9.0387    0.2972   -1.5622 F   0  0  0  0  0  0  0  0  0  0  0  0
    8.8670    0.8781    0.6071 F   0  0  0  0  0  0  0  0  0  0  0  0
    7.8852    2.1316   -0.9864 F   0  0  0  0  0  0  0  0  0  0  0  0
   -0.3679    0.0047    0.6471 C   0  0  0  0  0  0  0  0  0  0  0  0
   -1.5437    0.2794    1.3689 C   0  0  0  0  0  0  0  0  0  0  0  0
   -2.8261    0.1753    0.7219 N   0  0  0  0  0  0  0  0  0  0  0  0
   -3.1392   -0.8524   -0.2348 C   0  0  0  0  0  0  0  0  0  0  0  0
   -2.4800   -2.0441   -0.1723 N   0  0  0  0  0  0  0  0  0  0  0  0
   -2.7721   -3.0812   -0.9983 C   0  0  0  0  0  0  0  0  0  0  0  0
   -3.7873   -2.9546   -1.9428 C   0  0  0  0  0  0  0  0  0  0  0  0
   -4.4877   -1.7529   -2.0359 C   0  0  0  0  0  0  0  0  0  0  0  0
   -4.1735   -0.6786   -1.1858 C   0  0  0  0  0  0  0  0  0  0  0  0
   -4.8815    0.6139   -1.3455 C   0  0  0  0  0  0  0  0  0  0  0  0
   -6.2701    0.6597   -1.5355 C   0  0  0  0  0  0  0  0  0  0  0  0
   -6.8827    1.9024   -1.6936 C   0  0  0  0  0  0  0  0  0  0  0  0
   -6.1360    3.0361   -1.6657 N   0  0  0  0  0  0  0  0  0  0  0  0
   -4.7912    2.9789   -1.4851 C   0  0  0  0  0  0  0  0  0  0  0  0
   -4.1757    1.7780   -1.3295 N   0  0  0  0  0  0  0  0  0  0  0  0
   -2.4355    1.1386    4.6013 H   0  0  0  0  0  0  0  0  0  0  0  0
   -3.1288    1.9628    3.1576 H   0  0  0  0  0  0  0  0  0  0  0  0
   -3.4141    0.1936    3.4318 H   0  0  0  0  0  0  0  0  0  0  0  0
   -0.0864    1.1376    4.3423 H   0  0  0  0  0  0  0  0  0  0  0  0
    1.9352    0.6087    3.0828 H   0  0  0  0  0  0  0  0  0  0  0  0
    1.9660   -0.8143   -0.3401 H   0  0  0  0  0  0  0  0  0  0  0  0
    3.7828   -2.1859    0.0890 H   0  0  0  0  0  0  0  0  0  0  0  0
    5.8674   -3.2140   -0.6909 H   0  0  0  0  0  0  0  0  0  0  0  0
    7.8932   -1.8595   -1.0145 H   0  0  0  0  0  0  0  0  0  0  0  0
    5.7394    1.6579    0.2303 H   0  0  0  0  0  0  0  0  0  0  0  0
   -0.4303   -0.2886   -0.3934 H   0  0  0  0  0  0  0  0  0  0  0  0
   -3.5892    0.8222    1.0206 H   0  0  0  0  0  0  0  0  0  0  0  0
   -2.2192   -4.0073   -0.9155 H   0  0  0  0  0  0  0  0  0  0  0  0
   -4.0245   -3.7784   -2.6036 H   0  0  0  0  0  0  0  0  0  0  0  0
   -5.2580   -1.6537   -2.7907 H   0  0  0  0  0  0  0  0  0  0  0  0
   -6.8678   -0.2430   -1.5472 H   0  0  0  0  0  0  0  0  0  0  0  0
   -7.9531    1.9661   -1.8369 H   0  0  0  0  0  0  0  0  0  0  0  0
   -4.2095    3.8901   -1.4663 H   0  0  0  0  0  0  0  0  0  0  0  0
  1  2  1  0
  2  3  2  0
  3  4  1  0
  4  5  2  0
  5  6  1  0
  6  7  1  0
  7  8  2  0
  7  9  1  0
  9 10  2  0
 10 11  1  0
 11 12  2  0
 12 13  1  0
 13 14  2  0
 13 15  1  0
 15 16  1  0
 15 17  1  0
 15 18  1  0
  5 19  1  0
 19 20  2  0
 20 21  1  0
 21 22  1  0
 22 23  2  0
 23 24  1  0
 24 25  2  0
 25 26  1  0
 26 27  2  0
 27 28  1  0
 28 29  2  0
 29 30  1  0
 30 31  2  0
 31 32  1  0
 32 33  2  0
 20  2  1  0
 27 22  1  0
 33 28  1  0
 14  9  1  0
  1 34  1  0
  1 35  1  0
  1 36  1  0
  3 37  1  0
  4 38  1  0
  6 39  1  0
 10 40  1  0
 11 41  1  0
 12 42  1  0
 14 43  1  0
 19 44  1  0
 21 45  1  0
 24 46  1  0
 25 47  1  0
 26 48  1  0
 29 49  1  0
 30 50  1  0
 32 51  1  0
M  END
$$$$
