
     RDKit          3D

 50 51  0  0  0  0  0  0  0  0999 V2000
    3.0324    0.5859   -1.1406 C   0  0  2  0  0  0  0  0  0  0  0  0
    4.3886   -0.0355   -0.7541 C   0  0  0  0  0  0  0  0  0  0  0  0
    4.5629   -0.1163    0.7723 C   0  0  0  0  0  0  0  0  0  0  0  0
    5.8592   -0.8327    1.1810 C   0  0  0  0  0  0  0  0  0  0  0  0
    7.1113   -0.0099    0.8785 C   0  0  0  0  0  0  0  0  0  0  0  0
    1.9218   -0.2863   -0.7454 N   0  0  0  0  0  0  0  0  0  0  0  0
    0.5817    0.1970   -0.6031 C   0  0  0  0  0  0  0  0  0  0  0  0
    0.3289    1.4196   -0.7815 O   0  0  0  0  0  0  0  0  0  0  0  0
   -0.4342   -0.7113   -0.2696 O   0  0  0  0  0  0  0  0  0  0  0  0
   -1.8279   -0.4046   -0.0866 C   0  0  0  0  0  0  0  0  0  0  0  0
   -1.9900    0.5786    1.1126 C   0  0  0  0  0  0  0  0  0  0  0  0
   -3.4139    0.8893    1.5198 C   0  0  0  0  0  0  0  0  0  0  0  0
   -4.0501    0.1308    2.5188 C   0  0  0  0  0  0  0  0  0  0  0  0
   -5.3608    0.4279    2.9042 C   0  0  0  0  0  0  0  0  0  0  0  0
   -6.0429    1.4907    2.3065 C   0  0  0  0  0  0  0  0  0  0  0  0
   -5.4132    2.2618    1.3262 C   0  0  0  0  0  0  0  0  0  0  0  0
   -4.1027    1.9681    0.9377 C   0  0  0  0  0  0  0  0  0  0  0  0
   -2.5459   -1.7392    0.1343 C   0  0  0  0  0  0  0  0  0  0  0  0
   -2.7205   -2.3363   -1.2578 C   0  0  0  0  0  0  0  0  0  0  0  0
   -2.6618   -1.1667   -2.2406 C   0  0  0  0  0  0  0  0  0  0  0  0
   -2.4377    0.0898   -1.4061 C   0  0  0  0  0  0  0  0  0  0  0  0
    2.9750    0.8318   -2.6230 C   0  0  0  0  0  0  0  0  0  0  0  0
    3.0219   -0.0996   -3.4114 O   0  0  0  0  0  0  0  0  0  0  0  0
    2.9394    1.5647   -0.6192 H   0  0  0  0  0  0  0  0  0  0  0  0
    5.1998    0.5955   -1.1773 H   0  0  0  0  0  0  0  0  0  0  0  0
    4.4757   -1.0526   -1.1968 H   0  0  0  0  0  0  0  0  0  0  0  0
    4.5444    0.9060    1.2099 H   0  0  0  0  0  0  0  0  0  0  0  0
    3.7114   -0.6821    1.2084 H   0  0  0  0  0  0  0  0  0  0  0  0
    5.8246   -1.0224    2.2758 H   0  0  0  0  0  0  0  0  0  0  0  0
    5.9287   -1.8185    0.6719 H   0  0  0  0  0  0  0  0  0  0  0  0
    7.0329    1.0001    1.3342 H   0  0  0  0  0  0  0  0  0  0  0  0
    7.2630    0.0881   -0.2162 H   0  0  0  0  0  0  0  0  0  0  0  0
    7.9999   -0.5211    1.3050 H   0  0  0  0  0  0  0  0  0  0  0  0
    2.0856   -1.3120   -0.6272 H   0  0  0  0  0  0  0  0  0  0  0  0
   -1.4482    0.1560    1.9873 H   0  0  0  0  0  0  0  0  0  0  0  0
   -1.4832    1.5377    0.8813 H   0  0  0  0  0  0  0  0  0  0  0  0
   -3.5325   -0.6933    2.9941 H   0  0  0  0  0  0  0  0  0  0  0  0
   -5.8470   -0.1649    3.6681 H   0  0  0  0  0  0  0  0  0  0  0  0
   -7.0572    1.7199    2.6065 H   0  0  0  0  0  0  0  0  0  0  0  0
   -5.9396    3.0899    0.8694 H   0  0  0  0  0  0  0  0  0  0  0  0
   -3.6244    2.5816    0.1842 H   0  0  0  0  0  0  0  0  0  0  0  0
   -1.9649   -2.4163    0.7981 H   0  0  0  0  0  0  0  0  0  0  0  0
   -3.5564   -1.5941    0.5681 H   0  0  0  0  0  0  0  0  0  0  0  0
   -3.6892   -2.8767   -1.3368 H   0  0  0  0  0  0  0  0  0  0  0  0
   -1.8932   -3.0495   -1.4685 H   0  0  0  0  0  0  0  0  0  0  0  0
   -3.6047   -1.0880   -2.8247 H   0  0  0  0  0  0  0  0  0  0  0  0
   -1.8129   -1.3073   -2.9457 H   0  0  0  0  0  0  0  0  0  0  0  0
   -1.7939    0.8160   -1.9424 H   0  0  0  0  0  0  0  0  0  0  0  0
   -3.4249    0.5646   -1.2314 H   0  0  0  0  0  0  0  0  0  0  0  0
    2.8846    1.8458   -2.9988 H   0  0  0  0  0  0  0  0  0  0  0  0
  1  2  1  0
  2  3  1  0
  3  4  1  0
  4  5  1  0
  1  6  1  0
  6  7  1  0
  7  8  2  0
  7  9  1  0
  9 10  1  0
 10 11  1  0
 11 12  1  0
 12 13  2  0
 13 14  1  0
 14 15  2  0
 15 16  1  0
 16 17  2  0
 10 18  1  0
 18 19  1  0
 19 20  1  0
 20 21  1  0
  1 22  1  0
 22 23  2  0
 21 10  1  0
 17 12  1  0
  1 24  1  1
  2 25  1  0
  2 26  1  0
  3 27  1  0
  3 28  1  0
  4 29  1  0
  4 30  1  0
  5 31  1  0
  5 32  1  0
  5 33  1  0
  6 34  1  0
 11 35  1  0
 11 36  1  0
 13 37  1  0
 14 38  1  0
 15 39  1  0
 16 40  1  0
 17 41  1  0
 18 42  1  0
 18 43  1  0
 19 44  1  0
 19 45  1  0
 20 46  1  0
 20 47  1  0
 21 48  1  0
 21 49  1  0
 22 50  1  0
M  END
$$$$
