
     RDKit          3D

169174  0  0  0  0  0  0  0  0999 V2000
    2.9196    0.0932    1.5959 O   0  0  0  0  0  1  0  0  0  0  0  0
    2.3677    0.2643    0.0190 S   0  0  0  0  0  6  0  0  0  0  0  0
    3.0120   -0.7763   -0.8531 O   0  0  0  0  0  0  0  0  0  0  0  0
    2.7410    1.6254   -0.4975 O   0  0  0  0  0  0  0  0  0  0  0  0
    0.6184    0.0718   -0.0134 C   0  0  0  0  0  0  0  0  0  0  0  0
   -0.2175    1.1845    0.1616 C   0  0  0  0  0  0  0  0  0  0  0  0
   -1.6073    1.0284    0.1462 C   0  0  0  0  0  0  0  0  0  0  0  0
   -2.1678   -0.2388   -0.0390 C   0  0  0  0  0  0  0  0  0  0  0  0
   -1.3388   -1.3519   -0.2065 C   0  0  0  0  0  0  0  0  0  0  0  0
    0.0514   -1.1988   -0.1915 C   0  0  0  0  0  0  0  0  0  0  0  0
    2.9271   -0.1926   -1.5731 O   0  0  0  0  0  1  0  0  0  0  0  0
    2.3757   -0.1799    0.0131 S   0  0  0  0  0  6  0  0  0  0  0  0
    2.9793    0.9864    0.7441 O   0  0  0  0  0  0  0  0  0  0  0  0
    2.7952   -1.4493    0.6996 O   0  0  0  0  0  0  0  0  0  0  0  0
    0.6205   -0.0473    0.0220 C   0  0  0  0  0  0  0  0  0  0  0  0
   -0.1747   -1.2025   -0.0080 C   0  0  0  0  0  0  0  0  0  0  0  0
   -1.5692   -1.0954   -0.0116 C   0  0  0  0  0  0  0  0  0  0  0  0
   -2.1750    0.1643    0.0099 C   0  0  0  0  0  0  0  0  0  0  0  0
   -1.3867    1.3185    0.0324 C   0  0  0  0  0  0  0  0  0  0  0  0
    0.0081    1.2146    0.0360 C   0  0  0  0  0  0  0  0  0  0  0  0
   -7.7146    3.9401   -5.0679 C   0  0  0  0  0  0  0  0  0  0  0  0
   -8.3823    2.7823   -4.5767 O   0  0  0  0  0  0  0  0  0  0  0  0
   -7.8153    1.8518   -3.6913 C   0  0  0  0  0  0  0  0  0  0  0  0
   -6.4999    1.9836   -3.2098 C   0  0  0  0  0  0  0  0  0  0  0  0
   -5.9667    1.0487   -2.3109 C   0  0  0  0  0  0  0  0  0  0  0  0
   -6.7507   -0.0367   -1.8907 C   0  0  0  0  0  0  0  0  0  0  0  0
   -8.0491   -0.1914   -2.4058 C   0  0  0  0  0  0  0  0  0  0  0  0
   -8.5927    0.7583   -3.2882 C   0  0  0  0  0  0  0  0  0  0  0  0
   -9.9039    0.6533   -3.7795 O   0  0  0  0  0  0  0  0  0  0  0  0
  -10.8244   -0.3689   -3.4107 C   0  0  0  0  0  0  0  0  0  0  0  0
   -6.2320   -0.9926   -0.8246 C   0  0  0  0  0  0  0  0  0  0  0  0
   -6.7244   -0.4947    0.5795 C   0  0  0  0  0  0  0  0  0  0  0  0
   -8.2298   -0.4063    0.6689 C   0  0  0  0  0  0  0  0  0  0  0  0
   -8.9982   -1.5739    0.7881 C   0  0  0  0  0  0  0  0  0  0  0  0
  -10.4051   -1.5085    0.7954 C   0  0  0  0  0  0  0  0  0  0  0  0
  -11.2034   -2.6585    0.9009 O   0  0  0  0  0  0  0  0  0  0  0  0
  -10.6971   -3.9858    0.9985 C   0  0  0  0  0  0  0  0  0  0  0  0
  -11.0428   -0.2629    0.6860 C   0  0  0  0  0  0  0  0  0  0  0  0
  -12.4461   -0.2300    0.6830 O   0  0  0  0  0  0  0  0  0  0  0  0
  -13.2241    0.9539    0.5399 C   0  0  0  0  0  0  0  0  0  0  0  0
  -10.2684    0.9072    0.5753 C   0  0  0  0  0  0  0  0  0  0  0  0
   -8.8751    0.8342    0.5669 C   0  0  0  0  0  0  0  0  0  0  0  0
   -4.7341   -1.1837   -0.9259 N   0  0  0  0  0  4  0  0  0  0  0  0
   -4.4248   -1.8580   -2.2213 C   0  0  0  0  0  0  0  0  0  0  0  0
   -4.2657   -2.0572    0.2135 C   0  0  0  0  0  0  0  0  0  0  0  0
   -2.8892   -2.7646    0.0742 C   0  0  0  0  0  0  0  0  0  0  0  0
   -1.7246   -1.8298    0.1526 C   0  0  0  0  0  0  0  0  0  0  0  0
   -0.8480   -1.8426   -0.7544 O   0  0  0  0  0  0  0  0  0  0  0  0
   -1.6146   -0.9564    1.2378 O   0  0  0  0  0  0  0  0  0  0  0  0
   -0.5658   -0.0007    1.3499 C   0  0  0  0  0  0  0  0  0  0  0  0
   -0.7317    0.8194    2.6325 C   0  0  0  0  0  0  0  0  0  0  0  0
   -0.8040   -0.0332    3.9142 C   0  0  0  0  0  0  0  0  0  0  0  0
    0.4086   -0.9494    4.1678 C   0  0  0  0  0  0  0  0  0  0  0  0
    1.7163   -0.1910    4.4133 C   0  0  0  0  0  0  0  0  0  0  0  0
    2.2117    0.3421    3.1908 O   0  0  0  0  0  0  0  0  0  0  0  0
    3.4658    0.9459    3.0759 C   0  0  0  0  0  0  0  0  0  0  0  0
    4.2330    1.0298    4.0735 O   0  0  0  0  0  0  0  0  0  0  0  0
    3.8864    1.5298    1.7645 C   0  0  0  0  0  0  0  0  0  0  0  0
    3.6612    0.5922    0.5496 C   0  0  0  0  0  0  0  0  0  0  0  0
    4.4992   -0.6637    0.4703 N   0  0  0  0  0  4  0  0  0  0  0  0
    3.9981   -1.6379    1.4824 C   0  0  0  0  0  0  0  0  0  0  0  0
    4.2900   -1.2756   -0.8802 C   0  0  0  0  0  0  0  0  0  0  0  0
    4.8637   -0.4477   -2.0576 C   0  0  0  0  0  0  0  0  0  0  0  0
    6.0294    0.4437   -1.7032 C   0  0  0  0  0  0  0  0  0  0  0  0
    6.4834    0.5627   -0.3799 C   0  0  0  0  0  0  0  0  0  0  0  0
    7.4876    1.4930   -0.0694 C   0  0  0  0  0  0  0  0  0  0  0  0
    8.0836    2.2692   -1.0785 C   0  0  0  0  0  0  0  0  0  0  0  0
    9.1278    3.1674   -0.8070 O   0  0  0  0  0  0  0  0  0  0  0  0
    9.7272    3.3437    0.4728 C   0  0  0  0  0  0  0  0  0  0  0  0
    7.6406    2.1417   -2.4021 C   0  0  0  0  0  0  0  0  0  0  0  0
    8.2530    2.9316   -3.3880 O   0  0  0  0  0  0  0  0  0  0  0  0
    7.9187    2.8984   -4.7717 C   0  0  0  0  0  0  0  0  0  0  0  0
    6.6063    1.2364   -2.7054 C   0  0  0  0  0  0  0  0  0  0  0  0
    5.9660   -0.3883    0.6813 C   0  0  0  0  0  0  0  0  0  0  0  0
    6.8689   -1.6676    0.6967 C   0  0  0  0  0  0  0  0  0  0  0  0
    8.3012   -1.3412    1.0497 C   0  0  0  0  0  0  0  0  0  0  0  0
    9.2510   -1.1347    0.0371 C   0  0  0  0  0  0  0  0  0  0  0  0
   10.5572   -0.7160    0.3536 C   0  0  0  0  0  0  0  0  0  0  0  0
   11.5139   -0.4513   -0.6390 O   0  0  0  0  0  0  0  0  0  0  0  0
   11.2547   -0.4927   -2.0387 C   0  0  0  0  0  0  0  0  0  0  0  0
   10.9223   -0.5377    1.6970 C   0  0  0  0  0  0  0  0  0  0  0  0
   12.2339   -0.1268    1.9826 O   0  0  0  0  0  0  0  0  0  0  0  0
   12.7357    0.1143    3.2930 C   0  0  0  0  0  0  0  0  0  0  0  0
    9.9717   -0.7615    2.7111 C   0  0  0  0  0  0  0  0  0  0  0  0
    8.6707   -1.1495    2.3873 C   0  0  0  0  0  0  0  0  0  0  0  0
   -4.0504    0.1451   -0.8663 C   0  0  0  0  0  0  0  0  0  0  0  0
   -4.5110    1.1451   -1.9465 C   0  0  0  0  0  0  0  0  0  0  0  0
    0.2047    2.1700    0.3116 H   0  0  0  0  0  0  0  0  0  0  0  0
   -2.2497    1.8892    0.2796 H   0  0  0  0  0  0  0  0  0  0  0  0
   -3.2434   -0.3585   -0.0501 H   0  0  0  0  0  0  0  0  0  0  0  0
   -1.7733   -2.3333   -0.3460 H   0  0  0  0  0  0  0  0  0  0  0  0
    0.6830   -2.0691   -0.3165 H   0  0  0  0  0  0  0  0  0  0  0  0
    0.2828   -2.1833   -0.0306 H   0  0  0  0  0  0  0  0  0  0  0  0
   -2.1801   -1.9886   -0.0329 H   0  0  0  0  0  0  0  0  0  0  0  0
   -3.2542    0.2459    0.0064 H   0  0  0  0  0  0  0  0  0  0  0  0
   -1.8563    2.2936    0.0451 H   0  0  0  0  0  0  0  0  0  0  0  0
    0.6078    2.1157    0.0477 H   0  0  0  0  0  0  0  0  0  0  0  0
   -6.8135    3.6448   -5.6459 H   0  0  0  0  0  0  0  0  0  0  0  0
   -8.4003    4.4961   -5.7395 H   0  0  0  0  0  0  0  0  0  0  0  0
   -7.4286    4.6029   -4.2241 H   0  0  0  0  0  0  0  0  0  0  0  0
   -5.8762    2.8036   -3.5409 H   0  0  0  0  0  0  0  0  0  0  0  0
   -8.6413   -1.0390   -2.0895 H   0  0  0  0  0  0  0  0  0  0  0  0
  -11.0060   -0.3422   -2.3157 H   0  0  0  0  0  0  0  0  0  0  0  0
  -10.4314   -1.3635   -3.7095 H   0  0  0  0  0  0  0  0  0  0  0  0
  -11.7869   -0.1958   -3.9339 H   0  0  0  0  0  0  0  0  0  0  0  0
   -6.7190   -1.9821   -0.9952 H   0  0  0  0  0  0  0  0  0  0  0  0
   -6.2862    0.4964    0.8178 H   0  0  0  0  0  0  0  0  0  0  0  0
   -6.4093   -1.1877    1.3844 H   0  0  0  0  0  0  0  0  0  0  0  0
   -8.4923   -2.5277    0.8567 H   0  0  0  0  0  0  0  0  0  0  0  0
  -10.0739   -4.0907    1.9116 H   0  0  0  0  0  0  0  0  0  0  0  0
  -11.5479   -4.6941    1.0661 H   0  0  0  0  0  0  0  0  0  0  0  0
  -10.0992   -4.2335    0.0960 H   0  0  0  0  0  0  0  0  0  0  0  0
  -12.9991    1.4429   -0.4316 H   0  0  0  0  0  0  0  0  0  0  0  0
  -13.0150    1.6519    1.3778 H   0  0  0  0  0  0  0  0  0  0  0  0
  -14.3000    0.6853    0.5617 H   0  0  0  0  0  0  0  0  0  0  0  0
  -10.7342    1.8788    0.4846 H   0  0  0  0  0  0  0  0  0  0  0  0
   -8.2990    1.7448    0.4575 H   0  0  0  0  0  0  0  0  0  0  0  0
   -4.7848   -2.9111   -2.2171 H   0  0  0  0  0  0  0  0  0  0  0  0
   -3.3338   -1.8510   -2.4348 H   0  0  0  0  0  0  0  0  0  0  0  0
   -4.9033   -1.3590   -3.0893 H   0  0  0  0  0  0  0  0  0  0  0  0
   -4.2349   -1.4800    1.1645 H   0  0  0  0  0  0  0  0  0  0  0  0
   -5.0013   -2.8785    0.3759 H   0  0  0  0  0  0  0  0  0  0  0  0
   -2.7877   -3.4707    0.9263 H   0  0  0  0  0  0  0  0  0  0  0  0
   -2.8336   -3.3964   -0.8361 H   0  0  0  0  0  0  0  0  0  0  0  0
    0.4173   -0.5149    1.3397 H   0  0  0  0  0  0  0  0  0  0  0  0
   -0.6013    0.6886    0.4784 H   0  0  0  0  0  0  0  0  0  0  0  0
    0.0905    1.5607    2.7097 H   0  0  0  0  0  0  0  0  0  0  0  0
   -1.6754    1.4017    2.5523 H   0  0  0  0  0  0  0  0  0  0  0  0
   -1.7171   -0.6659    3.8710 H   0  0  0  0  0  0  0  0  0  0  0  0
   -0.9295    0.6475    4.7842 H   0  0  0  0  0  0  0  0  0  0  0  0
    0.1893   -1.5504    5.0770 H   0  0  0  0  0  0  0  0  0  0  0  0
    0.5384   -1.6735    3.3360 H   0  0  0  0  0  0  0  0  0  0  0  0
    1.5592    0.6277    5.1486 H   0  0  0  0  0  0  0  0  0  0  0  0
    2.4626   -0.9028    4.8293 H   0  0  0  0  0  0  0  0  0  0  0  0
    4.9307    1.9007    1.8080 H   0  0  0  0  0  0  0  0  0  0  0  0
    3.2627    2.4358    1.6068 H   0  0  0  0  0  0  0  0  0  0  0  0
    3.8331    1.2340   -0.3396 H   0  0  0  0  0  0  0  0  0  0  0  0
    2.5776    0.3428    0.4939 H   0  0  0  0  0  0  0  0  0  0  0  0
    4.3834   -1.4094    2.4981 H   0  0  0  0  0  0  0  0  0  0  0  0
    4.3087   -2.6805    1.2536 H   0  0  0  0  0  0  0  0  0  0  0  0
    2.8864   -1.6618    1.5173 H   0  0  0  0  0  0  0  0  0  0  0  0
    3.2026   -1.4372   -1.0659 H   0  0  0  0  0  0  0  0  0  0  0  0
    4.7366   -2.2924   -0.9329 H   0  0  0  0  0  0  0  0  0  0  0  0
    5.1724   -1.1411   -2.8699 H   0  0  0  0  0  0  0  0  0  0  0  0
    4.0529    0.1914   -2.4706 H   0  0  0  0  0  0  0  0  0  0  0  0
    7.8288    1.5735    0.9539 H   0  0  0  0  0  0  0  0  0  0  0  0
   10.1648    2.3856    0.8248 H   0  0  0  0  0  0  0  0  0  0  0  0
    8.9731    3.7105    1.2008 H   0  0  0  0  0  0  0  0  0  0  0  0
   10.5383    4.0959    0.3927 H   0  0  0  0  0  0  0  0  0  0  0  0
    6.8581    3.1942   -4.9156 H   0  0  0  0  0  0  0  0  0  0  0  0
    8.0921    1.8811   -5.1820 H   0  0  0  0  0  0  0  0  0  0  0  0
    8.5645    3.6162   -5.3177 H   0  0  0  0  0  0  0  0  0  0  0  0
    6.2394    1.1439   -3.7190 H   0  0  0  0  0  0  0  0  0  0  0  0
    6.1060    0.0721    1.6830 H   0  0  0  0  0  0  0  0  0  0  0  0
    6.8506   -2.1783   -0.2886 H   0  0  0  0  0  0  0  0  0  0  0  0
    6.5083   -2.3997    1.4467 H   0  0  0  0  0  0  0  0  0  0  0  0
    8.9528   -1.2631   -0.9949 H   0  0  0  0  0  0  0  0  0  0  0  0
   12.1768   -0.2105   -2.5866 H   0  0  0  0  0  0  0  0  0  0  0  0
   10.4510    0.2288   -2.2994 H   0  0  0  0  0  0  0  0  0  0  0  0
   10.9612   -1.5195   -2.3429 H   0  0  0  0  0  0  0  0  0  0  0  0
   12.6805   -0.8139    3.9000 H   0  0  0  0  0  0  0  0  0  0  0  0
   12.1554    0.9261    3.7804 H   0  0  0  0  0  0  0  0  0  0  0  0
   13.7968    0.4297    3.2223 H   0  0  0  0  0  0  0  0  0  0  0  0
   10.2242   -0.6232    3.7534 H   0  0  0  0  0  0  0  0  0  0  0  0
    7.9454   -1.2883    3.1797 H   0  0  0  0  0  0  0  0  0  0  0  0
   -4.1817    0.6149    0.1318 H   0  0  0  0  0  0  0  0  0  0  0  0
   -2.9568    0.0355   -0.9994 H   0  0  0  0  0  0  0  0  0  0  0  0
   -4.2848    2.1770   -1.5997 H   0  0  0  0  0  0  0  0  0  0  0  0
   -3.9162    0.9706   -2.8698 H   0  0  0  0  0  0  0  0  0  0  0  0
  1  2  1  0
  2  3  2  0
  2  4  2  0
  2  5  1  0
  5  6  2  0
  6  7  1  0
  7  8  2  0
  8  9  1  0
  9 10  2  0
 11 12  1  0
 12 13  2  0
 12 14  2  0
 12 15  1  0
 15 16  2  0
 16 17  1  0
 17 18  2  0
 18 19  1  0
 19 20  2  0
 21 22  1  0
 22 23  1  0
 23 24  2  0
 24 25  1  0
 25 26  2  0
 26 27  1  0
 27 28  2  0
 28 29  1  0
 29 30  1  0
 26 31  1  0
 31 32  1  0
 32 33  1  0
 33 34  2  0
 34 35  1  0
 35 36  1  0
 36 37  1  0
 35 38  2  0
 38 39  1  0
 39 40  1  0
 38 41  1  0
 41 42  2  0
 31 43  1  0
 43 44  1  0
 43 45  1  0
 45 46  1  0
 46 47  1  0
 47 48  2  0
 47 49  1  0
 49 50  1  0
 50 51  1  0
 51 52  1  0
 52 53  1  0
 53 54  1  0
 54 55  1  0
 55 56  1  0
 56 57  2  0
 56 58  1  0
 58 59  1  0
 59 60  1  0
 60 61  1  0
 60 62  1  0
 62 63  1  0
 63 64  1  0
 64 65  2  0
 65 66  1  0
 66 67  2  0
 67 68  1  0
 68 69  1  0
 67 70  1  0
 70 71  1  0
 71 72  1  0
 70 73  2  0
 65 74  1  0
 74 75  1  0
 75 76  1  0
 76 77  2  0
 77 78  1  0
 78 79  1  0
 79 80  1  0
 78 81  2  0
 81 82  1  0
 82 83  1  0
 81 84  1  0
 84 85  2  0
 43 86  1  0
 86 87  1  0
 10  5  1  0
 20 15  1  0
 28 23  1  0
 42 33  1  0
 74 60  1  0
 85 76  1  0
 87 25  1  0
 73 64  1  0
  6 88  1  0
  7 89  1  0
  8 90  1  0
  9 91  1  0
 10 92  1  0
 16 93  1  0
 17 94  1  0
 18 95  1  0
 19 96  1  0
 20 97  1  0
 21 98  1  0
 21 99  1  0
 21100  1  0
 24101  1  0
 27102  1  0
 30103  1  0
 30104  1  0
 30105  1  0
 31106  1  0
 32107  1  0
 32108  1  0
 34109  1  0
 37110  1  0
 37111  1  0
 37112  1  0
 40113  1  0
 40114  1  0
 40115  1  0
 41116  1  0
 42117  1  0
 44118  1  0
 44119  1  0
 44120  1  0
 45121  1  0
 45122  1  0
 46123  1  0
 46124  1  0
 50125  1  0
 50126  1  0
 51127  1  0
 51128  1  0
 52129  1  0
 52130  1  0
 53131  1  0
 53132  1  0
 54133  1  0
 54134  1  0
 58135  1  0
 58136  1  0
 59137  1  0
 59138  1  0
 61139  1  0
 61140  1  0
 61141  1  0
 62142  1  0
 62143  1  0
 63144  1  0
 63145  1  0
 66146  1  0
 69147  1  0
 69148  1  0
 69149  1  0
 72150  1  0
 72151  1  0
 72152  1  0
 73153  1  0
 74154  1  0
 75155  1  0
 75156  1  0
 77157  1  0
 80158  1  0
 80159  1  0
 80160  1  0
 83161  1  0
 83162  1  0
 83163  1  0
 84164  1  0
 85165  1  0
 86166  1  0
 86167  1  0
 87168  1  0
 87169  1  0
M  CHG  4   1  -1  11  -1  43   1  60   1
M  END
$$$$
