
     RDKit          3D

 26 27  0  0  0  0  0  0  0  0999 V2000
    3.7176   -0.8627    1.0685 N   0  0  0  0  0  0  0  0  0  0  0  0
    2.5716   -1.4011    0.4061 C   0  0  0  0  0  0  0  0  0  0  0  0
    2.4925   -2.6456    0.2236 O   0  0  0  0  0  0  0  0  0  0  0  0
    1.4546   -0.5262   -0.0146 C   0  0  0  0  0  0  0  0  0  0  0  0
    0.1432   -0.9435    0.2598 C   0  0  0  0  0  0  0  0  0  0  0  0
   -0.9527   -0.1236   -0.0266 C   0  0  0  0  0  0  0  0  0  0  0  0
   -2.2533   -0.5685    0.3631 N   0  0  0  0  0  0  0  0  0  0  0  0
   -3.7329   -0.4363    0.5273 C   0  0  0  0  0  0  0  0  0  0  0  0
   -3.1410   -1.5878    0.9978 C   0  0  0  0  0  0  0  0  0  0  0  0
   -0.7469    1.1413   -0.6153 C   0  0  0  0  0  0  0  0  0  0  0  0
    0.5630    1.5586   -0.8958 C   0  0  0  0  0  0  0  0  0  0  0  0
    1.6672    0.7327   -0.6255 C   0  0  0  0  0  0  0  0  0  0  0  0
    2.9780    1.1585   -1.0376 N   0  0  0  0  0  4  0  0  0  0  0  0
    3.8583    0.2578   -1.5919 O   0  0  0  0  0  1  0  0  0  0  0  0
    3.2672    2.3729   -1.0574 O   0  0  0  0  0  0  0  0  0  0  0  0
   -1.8441    2.0072   -0.9468 N   0  0  0  0  0  4  0  0  0  0  0  0
   -1.6753    3.3725   -0.9165 O   0  0  0  0  0  1  0  0  0  0  0  0
   -2.8848    1.5417   -1.4531 O   0  0  0  0  0  0  0  0  0  0  0  0
    4.5083   -1.4878    1.3407 H   0  0  0  0  0  0  0  0  0  0  0  0
    3.7583    0.1447    1.3395 H   0  0  0  0  0  0  0  0  0  0  0  0
   -0.0295   -1.8996    0.7409 H   0  0  0  0  0  0  0  0  0  0  0  0
   -3.9871    0.3383    1.2811 H   0  0  0  0  0  0  0  0  0  0  0  0
   -4.2620   -0.5192   -0.4453 H   0  0  0  0  0  0  0  0  0  0  0  0
   -3.2285   -2.4934    0.3614 H   0  0  0  0  0  0  0  0  0  0  0  0
   -2.9632   -1.6474    2.0922 H   0  0  0  0  0  0  0  0  0  0  0  0
    0.7216    2.5166   -1.3754 H   0  0  0  0  0  0  0  0  0  0  0  0
  1  2  1  0
  2  3  2  0
  2  4  1  0
  4  5  2  0
  5  6  1  0
  6  7  1  0
  7  8  1  0
  8  9  1  0
  6 10  2  0
 10 11  1  0
 11 12  2  0
 12 13  1  0
 13 14  1  0
 13 15  2  0
 10 16  1  0
 16 17  1  0
 16 18  2  0
 12  4  1  0
  9  7  1  0
  1 19  1  0
  1 20  1  0
  5 21  1  0
  8 22  1  0
  8 23  1  0
  9 24  1  0
  9 25  1  0
 11 26  1  0
M  CHG  4  13   1  14  -1  16   1  17  -1
M  END
$$$$
