
     RDKit          3D

 55 58  0  0  0  0  0  0  0  0999 V2000
   -5.1237   -0.9929   -0.3507 C   0  0  0  0  0  0  0  0  0  0  0  0
   -6.0526    0.2367   -0.2267 C   0  0  0  0  0  0  0  0  0  0  0  0
   -7.5100   -0.2651   -0.2084 C   0  0  0  0  0  0  0  0  0  0  0  0
   -5.8840    1.1483   -1.4610 C   0  0  0  0  0  0  0  0  0  0  0  0
   -5.8354    0.9703    1.0461 N   0  0  0  0  0  0  0  0  0  0  0  0
   -4.3905    1.9467    1.1810 S   0  0  0  0  0  6  0  0  0  0  0  0
   -4.4522    3.0971    0.2149 O   0  0  0  0  0  0  0  0  0  0  0  0
   -4.3371    2.5200    2.5691 O   0  0  0  0  0  0  0  0  0  0  0  0
   -2.9181    1.0134    0.9336 C   0  0  0  0  0  0  0  0  0  0  0  0
   -2.5878   -0.0091    1.8307 C   0  0  0  0  0  0  0  0  0  0  0  0
   -1.4322   -0.7705    1.6375 C   0  0  0  0  0  0  0  0  0  0  0  0
   -0.5846   -0.5163    0.5440 C   0  0  0  0  0  0  0  0  0  0  0  0
   -0.9192    0.5177   -0.3495 C   0  0  0  0  0  0  0  0  0  0  0  0
   -2.0764    1.2769   -0.1551 C   0  0  0  0  0  0  0  0  0  0  0  0
    0.6424   -1.3267    0.3350 C   0  0  0  0  0  0  0  0  0  0  0  0
    0.6310   -2.7136    0.5520 C   0  0  0  0  0  0  0  0  0  0  0  0
    1.7574   -3.4484    0.3661 N   0  0  0  0  0  0  0  0  0  0  0  0
    2.9271   -2.8859   -0.0357 C   0  0  0  0  0  0  0  0  0  0  0  0
    4.0600   -3.6883   -0.1999 C   0  0  0  0  0  0  0  0  0  0  0  0
    5.2664   -3.1208   -0.6097 C   0  0  0  0  0  0  0  0  0  0  0  0
    5.3487   -1.7501   -0.8608 C   0  0  0  0  0  0  0  0  0  0  0  0
    4.2251   -0.9219   -0.6949 C   0  0  0  0  0  0  0  0  0  0  0  0
    4.3208    0.4779   -1.0119 N   0  0  0  0  0  0  0  0  0  0  0  0
    5.3940    1.3285   -0.5777 C   0  0  0  0  0  0  0  0  0  0  0  0
    6.1731    1.0142    0.5501 C   0  0  0  0  0  0  0  0  0  0  0  0
    7.1902    1.8852    0.9457 C   0  0  0  0  0  0  0  0  0  0  0  0
    7.4170    3.0607    0.2292 C   0  0  0  0  0  0  0  0  0  0  0  0
    6.6142    3.3520   -0.8749 C   0  0  0  0  0  0  0  0  0  0  0  0
    5.6291    2.4915   -1.2467 N   0  0  0  0  0  0  0  0  0  0  0  0
    2.9983   -1.4946   -0.2827 C   0  0  0  0  0  0  0  0  0  0  0  0
    1.8403   -0.7223   -0.0813 C   0  0  0  0  0  0  0  0  0  0  0  0
   -5.1097   -1.5771    0.5940 H   0  0  0  0  0  0  0  0  0  0  0  0
   -5.4711   -1.6635   -1.1662 H   0  0  0  0  0  0  0  0  0  0  0  0
   -4.0887   -0.7013   -0.6088 H   0  0  0  0  0  0  0  0  0  0  0  0
   -7.6755   -0.9487    0.6524 H   0  0  0  0  0  0  0  0  0  0  0  0
   -8.2120    0.5911   -0.1091 H   0  0  0  0  0  0  0  0  0  0  0  0
   -7.7597   -0.8155   -1.1416 H   0  0  0  0  0  0  0  0  0  0  0  0
   -6.4712    2.0834   -1.3365 H   0  0  0  0  0  0  0  0  0  0  0  0
   -6.2384    0.6331   -2.3800 H   0  0  0  0  0  0  0  0  0  0  0  0
   -4.8182    1.4063   -1.6296 H   0  0  0  0  0  0  0  0  0  0  0  0
   -5.8340    0.2968    1.8471 H   0  0  0  0  0  0  0  0  0  0  0  0
   -3.2297   -0.2206    2.6766 H   0  0  0  0  0  0  0  0  0  0  0  0
   -1.1935   -1.5479    2.3523 H   0  0  0  0  0  0  0  0  0  0  0  0
   -0.2966    0.7262   -1.2105 H   0  0  0  0  0  0  0  0  0  0  0  0
   -2.3183    2.0603   -0.8613 H   0  0  0  0  0  0  0  0  0  0  0  0
   -0.2769   -3.2172    0.8572 H   0  0  0  0  0  0  0  0  0  0  0  0
    4.0070   -4.7534   -0.0108 H   0  0  0  0  0  0  0  0  0  0  0  0
    6.1396   -3.7467   -0.7415 H   0  0  0  0  0  0  0  0  0  0  0  0
    6.2880   -1.3330   -1.2015 H   0  0  0  0  0  0  0  0  0  0  0  0
    3.5988    0.8905   -1.6445 H   0  0  0  0  0  0  0  0  0  0  0  0
    5.9890    0.1175    1.1270 H   0  0  0  0  0  0  0  0  0  0  0  0
    7.7974    1.6523    1.8110 H   0  0  0  0  0  0  0  0  0  0  0  0
    8.2019    3.7424    0.5303 H   0  0  0  0  0  0  0  0  0  0  0  0
    6.7724    4.2634   -1.4357 H   0  0  0  0  0  0  0  0  0  0  0  0
    1.8681    0.3509   -0.2161 H   0  0  0  0  0  0  0  0  0  0  0  0
  1  2  1  0
  2  3  1  0
  2  4  1  0
  2  5  1  0
  5  6  1  0
  6  7  2  0
  6  8  2  0
  6  9  1  0
  9 10  2  0
 10 11  1  0
 11 12  2  0
 12 13  1  0
 13 14  2  0
 12 15  1  0
 15 16  2  0
 16 17  1  0
 17 18  2  0
 18 19  1  0
 19 20  2  0
 20 21  1  0
 21 22  2  0
 22 23  1  0
 23 24  1  0
 24 25  2  0
 25 26  1  0
 26 27  2  0
 27 28  1  0
 28 29  2  0
 22 30  1  0
 30 31  2  0
 14  9  1  0
 31 15  1  0
 30 18  1  0
 29 24  1  0
  1 32  1  0
  1 33  1  0
  1 34  1  0
  3 35  1  0
  3 36  1  0
  3 37  1  0
  4 38  1  0
  4 39  1  0
  4 40  1  0
  5 41  1  0
 10 42  1  0
 11 43  1  0
 13 44  1  0
 14 45  1  0
 16 46  1  0
 19 47  1  0
 20 48  1  0
 21 49  1  0
 23 50  1  0
 25 51  1  0
 26 52  1  0
 27 53  1  0
 28 54  1  0
 31 55  1  0
M  END
$$$$
