
     RDKit          3D

 47 47  0  0  0  0  0  0  0  0999 V2000
   -2.8694   -0.7698   -0.2675 C   0  0  1  0  0  0  0  0  0  0  0  0
   -2.3835   -2.1822    0.1125 C   0  0  0  0  0  0  0  0  0  0  0  0
   -3.7731   -0.2118    0.8715 C   0  0  0  0  0  0  0  0  0  0  0  0
   -4.9479    0.6186    0.3509 C   0  0  0  0  0  0  0  0  0  0  0  0
   -1.6506    0.1521   -0.5608 C   0  0  1  0  0  0  0  0  0  0  0  0
   -0.7864   -0.4673   -1.5876 N   0  0  0  0  0  0  0  0  0  0  0  0
    0.5899    0.0502   -1.5640 C   0  0  0  0  0  0  0  0  0  0  0  0
    1.3689   -0.5661   -0.4119 C   0  0  0  0  0  0  0  0  0  0  0  0
    1.8843    0.2272    0.6524 C   0  0  0  0  0  0  0  0  0  0  0  0
    1.7767    1.7451    0.6423 C   0  0  0  0  0  0  0  0  0  0  0  0
    2.4449    2.3479    1.7336 O   0  0  0  0  0  0  0  0  0  0  0  0
    4.0339    2.7788    1.2724 P   0  0  0  0  0  5  0  0  0  0  0  0
    4.8669    3.3476    2.6302 O   0  0  0  0  0  0  0  0  0  0  0  0
    3.9829    3.9989    0.1002 O   0  0  0  0  0  0  0  0  0  0  0  0
    4.7651    1.5780    0.7148 O   0  0  0  0  0  0  0  0  0  0  0  0
    2.4733   -0.4280    1.7502 C   0  0  0  0  0  0  0  0  0  0  0  0
    2.5944   -1.7766    1.7697 N   0  0  0  0  0  0  0  0  0  0  0  0
    2.1588   -2.5571    0.7510 C   0  0  0  0  0  0  0  0  0  0  0  0
    2.3352   -4.0421    0.8422 C   0  0  0  0  0  0  0  0  0  0  0  0
    1.5410   -1.9739   -0.3644 C   0  0  0  0  0  0  0  0  0  0  0  0
    1.1105   -2.8129   -1.3988 O   0  0  0  0  0  0  0  0  0  0  0  0
   -2.0831    1.5322   -0.9931 C   0  0  0  0  0  0  0  0  0  0  0  0
   -1.8434    2.6226   -0.1629 O   0  0  0  0  0  0  0  0  0  0  0  0
   -2.6751    1.7013   -2.0935 O   0  0  0  0  0  0  0  0  0  0  0  0
   -3.4683   -0.8780   -1.1999 H   0  0  0  0  0  0  0  0  0  0  0  0
   -1.8058   -2.6406   -0.7173 H   0  0  0  0  0  0  0  0  0  0  0  0
   -1.7418   -2.1436    1.0192 H   0  0  0  0  0  0  0  0  0  0  0  0
   -3.2498   -2.8485    0.3123 H   0  0  0  0  0  0  0  0  0  0  0  0
   -4.2129   -1.0442    1.4640 H   0  0  0  0  0  0  0  0  0  0  0  0
   -3.1771    0.3996    1.5836 H   0  0  0  0  0  0  0  0  0  0  0  0
   -5.5939    0.9172    1.2034 H   0  0  0  0  0  0  0  0  0  0  0  0
   -4.5997    1.5416   -0.1519 H   0  0  0  0  0  0  0  0  0  0  0  0
   -5.5596    0.0213   -0.3582 H   0  0  0  0  0  0  0  0  0  0  0  0
   -1.0833    0.2511    0.3921 H   0  0  0  0  0  0  0  0  0  0  0  0
   -1.1916   -0.3214   -2.5422 H   0  0  0  0  0  0  0  0  0  0  0  0
    1.1022   -0.2230   -2.5118 H   0  0  0  0  0  0  0  0  0  0  0  0
    0.5737    1.1570   -1.5584 H   0  0  0  0  0  0  0  0  0  0  0  0
    2.1111    2.1539   -0.3385 H   0  0  0  0  0  0  0  0  0  0  0  0
    0.7027    2.0054    0.7349 H   0  0  0  0  0  0  0  0  0  0  0  0
    4.3110    4.0922    2.9727 H   0  0  0  0  0  0  0  0  0  0  0  0
    3.4170    4.7071    0.4989 H   0  0  0  0  0  0  0  0  0  0  0  0
    2.8453    0.1269    2.6003 H   0  0  0  0  0  0  0  0  0  0  0  0
    2.8497   -4.3180    1.7873 H   0  0  0  0  0  0  0  0  0  0  0  0
    1.3431   -4.5403    0.8203 H   0  0  0  0  0  0  0  0  0  0  0  0
    2.9471   -4.4021   -0.0116 H   0  0  0  0  0  0  0  0  0  0  0  0
    0.6996   -2.4810   -2.2607 H   0  0  0  0  0  0  0  0  0  0  0  0
   -2.1328    3.5548   -0.4331 H   0  0  0  0  0  0  0  0  0  0  0  0
  1  2  1  0
  1  3  1  0
  3  4  1  0
  1  5  1  0
  5  6  1  0
  6  7  1  0
  7  8  1  0
  8  9  2  0
  9 10  1  0
 10 11  1  0
 11 12  1  0
 12 13  1  0
 12 14  1  0
 12 15  2  0
  9 16  1  0
 16 17  2  0
 17 18  1  0
 18 19  1  0
 18 20  2  0
 20 21  1  0
  5 22  1  0
 22 23  1  0
 22 24  2  0
 20  8  1  0
  1 25  1  6
  2 26  1  0
  2 27  1  0
  2 28  1  0
  3 29  1  0
  3 30  1  0
  4 31  1  0
  4 32  1  0
  4 33  1  0
  5 34  1  1
  6 35  1  0
  7 36  1  0
  7 37  1  0
 10 38  1  0
 10 39  1  0
 13 40  1  0
 14 41  1  0
 16 42  1  0
 19 43  1  0
 19 44  1  0
 19 45  1  0
 21 46  1  0
 23 47  1  0
M  END
$$$$
