
     RDKit          3D

 51 54  0  0  0  0  0  0  0  0999 V2000
   -4.9664   -1.1496    2.2592 C   0  0  0  0  0  0  0  0  0  0  0  0
   -4.6446    0.0651    1.6198 O   0  0  0  0  0  0  0  0  0  0  0  0
   -3.9596   -0.2074    0.4161 C   0  0  0  0  0  0  0  0  0  0  0  0
   -3.6126    1.1129   -0.2698 C   0  0  0  0  0  0  0  0  0  0  0  0
   -2.9628    0.8753   -1.5605 N   0  0  0  0  0  0  0  0  0  0  0  0
   -1.6957    0.2029   -1.7182 C   0  0  0  0  0  0  0  0  0  0  0  0
   -0.7152    0.2920   -0.7111 C   0  0  0  0  0  0  0  0  0  0  0  0
    0.5448   -0.2957   -0.8779 C   0  0  0  0  0  0  0  0  0  0  0  0
    0.8362   -0.9750   -2.0643 C   0  0  0  0  0  0  0  0  0  0  0  0
   -0.1235   -1.0785   -3.0702 C   0  0  0  0  0  0  0  0  0  0  0  0
   -1.3954   -0.5020   -2.9119 C   0  0  0  0  0  0  0  0  0  0  0  0
   -2.4063   -0.7044   -3.9762 C   0  0  0  0  0  0  0  0  0  0  0  0
   -2.0361   -0.6533   -5.3555 N   0  0  0  0  0  0  0  0  0  0  0  0
   -3.6038   -0.9505   -3.6699 O   0  0  0  0  0  0  0  0  0  0  0  0
    1.5373   -0.1867    0.1556 N   0  0  0  0  0  0  0  0  0  0  0  0
    2.0147    0.9550    0.7128 C   0  0  0  0  0  0  0  0  0  0  0  0
    2.9557    0.6706    1.6831 C   0  0  0  0  0  0  0  0  0  0  0  0
    3.0766   -0.7044    1.7136 C   0  0  0  0  0  0  0  0  0  0  0  0
    3.8665   -1.5475    2.4958 C   0  0  0  0  0  0  0  0  0  0  0  0
    3.7383   -2.9339    2.3020 C   0  0  0  0  0  0  0  0  0  0  0  0
    2.8307   -3.4432    1.3488 C   0  0  0  0  0  0  0  0  0  0  0  0
    2.0445   -2.5721    0.5741 C   0  0  0  0  0  0  0  0  0  0  0  0
    2.1981   -1.1958    0.7711 C   0  0  0  0  0  0  0  0  0  0  0  0
    3.6384    1.7227    2.4447 C   0  0  0  0  0  0  0  0  0  0  0  0
    4.5068    1.4423    3.3124 O   0  0  0  0  0  0  0  0  0  0  0  0
    3.2265    3.1527    2.2069 C   0  0  0  0  0  0  0  0  0  0  0  0
    2.7077    3.3609    0.7655 C   0  0  0  0  0  0  0  0  0  0  0  0
    1.5921    2.3624    0.3875 C   0  0  0  0  0  0  0  0  0  0  0  0
   -5.6391   -1.7720    1.6280 H   0  0  0  0  0  0  0  0  0  0  0  0
   -4.0489   -1.7187    2.5286 H   0  0  0  0  0  0  0  0  0  0  0  0
   -5.5071   -0.9210    3.2004 H   0  0  0  0  0  0  0  0  0  0  0  0
   -4.6003   -0.8032   -0.2744 H   0  0  0  0  0  0  0  0  0  0  0  0
   -3.0181   -0.7659    0.6209 H   0  0  0  0  0  0  0  0  0  0  0  0
   -2.9644    1.7344    0.3824 H   0  0  0  0  0  0  0  0  0  0  0  0
   -4.5520    1.6839   -0.4374 H   0  0  0  0  0  0  0  0  0  0  0  0
   -3.4625    1.2184   -2.4112 H   0  0  0  0  0  0  0  0  0  0  0  0
   -0.9183    0.8227    0.2073 H   0  0  0  0  0  0  0  0  0  0  0  0
    1.8106   -1.4245   -2.2092 H   0  0  0  0  0  0  0  0  0  0  0  0
    0.1221   -1.6364   -3.9653 H   0  0  0  0  0  0  0  0  0  0  0  0
   -2.7478   -0.8394   -6.0966 H   0  0  0  0  0  0  0  0  0  0  0  0
   -1.0705   -0.3826   -5.6458 H   0  0  0  0  0  0  0  0  0  0  0  0
    4.5541   -1.1572    3.2336 H   0  0  0  0  0  0  0  0  0  0  0  0
    4.3355   -3.6160    2.8931 H   0  0  0  0  0  0  0  0  0  0  0  0
    2.7354   -4.5131    1.2162 H   0  0  0  0  0  0  0  0  0  0  0  0
    1.3385   -2.9661   -0.1445 H   0  0  0  0  0  0  0  0  0  0  0  0
    2.4253    3.4188    2.9292 H   0  0  0  0  0  0  0  0  0  0  0  0
    4.0928    3.8262    2.3829 H   0  0  0  0  0  0  0  0  0  0  0  0
    3.5558    3.2430    0.0553 H   0  0  0  0  0  0  0  0  0  0  0  0
    2.3217    4.3976    0.6607 H   0  0  0  0  0  0  0  0  0  0  0  0
    0.6716    2.6042    0.9601 H   0  0  0  0  0  0  0  0  0  0  0  0
    1.3724    2.4521   -0.6977 H   0  0  0  0  0  0  0  0  0  0  0  0
  1  2  1  0
  2  3  1  0
  3  4  1  0
  4  5  1  0
  5  6  1  0
  6  7  2  0
  7  8  1  0
  8  9  2  0
  9 10  1  0
 10 11  2  0
 11 12  1  0
 12 13  1  0
 12 14  2  0
  8 15  1  0
 15 16  1  0
 16 17  2  0
 17 18  1  0
 18 19  2  0
 19 20  1  0
 20 21  2  0
 21 22  1  0
 22 23  2  0
 17 24  1  0
 24 25  2  0
 24 26  1  0
 26 27  1  0
 27 28  1  0
 11  6  1  0
 23 15  1  0
 28 16  1  0
 23 18  1  0
  1 29  1  0
  1 30  1  0
  1 31  1  0
  3 32  1  0
  3 33  1  0
  4 34  1  0
  4 35  1  0
  5 36  1  0
  7 37  1  0
  9 38  1  0
 10 39  1  0
 13 40  1  0
 13 41  1  0
 19 42  1  0
 20 43  1  0
 21 44  1  0
 22 45  1  0
 26 46  1  0
 26 47  1  0
 27 48  1  0
 27 49  1  0
 28 50  1  0
 28 51  1  0
M  END
$$$$
