
     RDKit          3D

 29 30  0  0  0  0  0  0  0  0999 V2000
    5.0393    0.3625    0.4951 C   0  0  0  0  0  0  0  0  0  0  0  0
    4.2598   -0.0121   -0.6361 O   0  0  0  0  0  0  0  0  0  0  0  0
    2.8774   -0.2482   -0.6023 C   0  0  0  0  0  0  0  0  0  0  0  0
    2.2358   -0.6101   -1.7912 C   0  0  0  0  0  0  0  0  0  0  0  0
    0.8552   -0.8552   -1.8171 C   0  0  0  0  0  0  0  0  0  0  0  0
    0.2363   -1.2034   -3.0180 O   0  0  0  0  0  0  0  0  0  0  0  0
    0.0972   -0.7350   -0.6349 C   0  0  0  0  0  0  0  0  0  0  0  0
    0.7468   -0.3815    0.5603 C   0  0  0  0  0  0  0  0  0  0  0  0
    2.1216   -0.1357    0.5779 C   0  0  0  0  0  0  0  0  0  0  0  0
   -1.3598   -1.0156   -0.6331 C   0  0  0  0  0  0  0  0  0  0  0  0
   -1.7949   -1.9821   -1.3170 O   0  0  0  0  0  0  0  0  0  0  0  0
   -2.3192   -0.2043    0.1573 C   0  0  0  0  0  0  0  0  0  0  0  0
   -3.5217   -0.7781    0.6094 C   0  0  0  0  0  0  0  0  0  0  0  0
   -4.4375   -0.0176    1.3431 C   0  0  0  0  0  0  0  0  0  0  0  0
   -4.1684    1.3236    1.6247 C   0  0  0  0  0  0  0  0  0  0  0  0
   -2.9850    1.9086    1.1689 C   0  0  0  0  0  0  0  0  0  0  0  0
   -2.0657    1.1527    0.4351 C   0  0  0  0  0  0  0  0  0  0  0  0
    4.9877   -0.4282    1.2731 H   0  0  0  0  0  0  0  0  0  0  0  0
    4.6762    1.3281    0.9061 H   0  0  0  0  0  0  0  0  0  0  0  0
    6.0966    0.4846    0.1824 H   0  0  0  0  0  0  0  0  0  0  0  0
    2.8151   -0.6984   -2.7019 H   0  0  0  0  0  0  0  0  0  0  0  0
    0.7607   -1.2912   -3.8807 H   0  0  0  0  0  0  0  0  0  0  0  0
    0.1909   -0.3081    1.4870 H   0  0  0  0  0  0  0  0  0  0  0  0
    2.5874    0.1353    1.5155 H   0  0  0  0  0  0  0  0  0  0  0  0
   -3.7480   -1.8172    0.4047 H   0  0  0  0  0  0  0  0  0  0  0  0
   -5.3569   -0.4689    1.6933 H   0  0  0  0  0  0  0  0  0  0  0  0
   -4.8790    1.9108    2.1919 H   0  0  0  0  0  0  0  0  0  0  0  0
   -2.7819    2.9507    1.3794 H   0  0  0  0  0  0  0  0  0  0  0  0
   -1.1659    1.6338    0.0731 H   0  0  0  0  0  0  0  0  0  0  0  0
  1  2  1  0
  2  3  1  0
  3  4  2  0
  4  5  1  0
  5  6  1  0
  5  7  2  0
  7  8  1  0
  8  9  2  0
  7 10  1  0
 10 11  2  0
 10 12  1  0
 12 13  2  0
 13 14  1  0
 14 15  2  0
 15 16  1  0
 16 17  2  0
  9  3  1  0
 17 12  1  0
  1 18  1  0
  1 19  1  0
  1 20  1  0
  4 21  1  0
  6 22  1  0
  8 23  1  0
  9 24  1  0
 13 25  1  0
 14 26  1  0
 15 27  1  0
 16 28  1  0
 17 29  1  0
M  END
$$$$
