
     RDKit          3D

 45 49  0  0  0  0  0  0  0  0999 V2000
   -7.6121   -0.5600   -0.6584 N   0  0  0  0  0  0  0  0  0  0  0  0
   -6.9747    0.7484   -0.4958 C   0  0  0  0  0  0  0  0  0  0  0  0
   -7.4921    1.4102    0.7038 N   0  0  0  0  0  0  0  0  0  0  0  0
   -5.4590    0.6273   -0.4540 C   0  0  0  0  0  0  0  0  0  0  0  0
   -4.8164   -0.1172    0.5661 C   0  0  0  0  0  0  0  0  0  0  0  0
   -3.4263   -0.1869    0.5446 C   0  0  0  0  0  0  0  0  0  0  0  0
   -2.6816    0.4299   -0.4132 C   0  0  0  0  0  0  0  0  0  0  0  0
   -3.2677    1.1710   -1.4334 C   0  0  0  0  0  0  0  0  0  0  0  0
   -4.6717    1.2680   -1.4500 C   0  0  0  0  0  0  0  0  0  0  0  0
   -1.3715    0.2072   -0.2065 N   0  0  0  0  0  4  0  0  0  0  0  0
   -1.3716   -0.5665    0.9125 C   0  0  0  0  0  0  0  0  0  0  0  0
   -2.6132   -0.8246    1.3952 N   0  0  0  0  0  0  0  0  0  0  0  0
   -0.1380   -1.0728    1.5361 C   0  0  0  0  0  0  0  0  0  0  0  0
   -0.2115   -1.7855    2.5726 O   0  0  0  0  0  0  0  0  0  0  0  0
    1.1805   -0.7563    0.9629 C   0  0  0  0  0  0  0  0  0  0  0  0
    1.3386    0.0060   -0.1528 N   0  0  0  0  0  4  0  0  0  0  0  0
    0.0306    0.7298   -1.0860 Zn  0  0  0  0  0  2  0  0  0  0  0  0
    2.6743    0.0312   -0.3079 C   0  0  0  0  0  0  0  0  0  0  0  0
    3.2815   -0.6871    0.6763 C   0  0  0  0  0  0  0  0  0  0  0  0
    2.3503   -1.1951    1.4924 N   0  0  0  0  0  0  0  0  0  0  0  0
    4.6647   -0.8276    0.7497 C   0  0  0  0  0  0  0  0  0  0  0  0
    5.4474   -0.1865   -0.2388 C   0  0  0  0  0  0  0  0  0  0  0  0
    4.8050    0.5536   -1.2699 C   0  0  0  0  0  0  0  0  0  0  0  0
    3.4028    0.6696   -1.3062 C   0  0  0  0  0  0  0  0  0  0  0  0
    6.9560   -0.3316   -0.2195 C   0  0  0  0  0  0  0  0  0  0  0  0
    7.5959    0.9710   -0.4033 N   0  0  0  0  0  0  0  0  0  0  0  0
    7.3990   -1.2514   -1.2686 N   0  0  0  0  0  0  0  0  0  0  0  0
   -7.3723   -1.1756    0.1520 H   0  0  0  0  0  0  0  0  0  0  0  0
   -7.2315   -1.0134   -1.5212 H   0  0  0  0  0  0  0  0  0  0  0  0
   -7.2713    1.3706   -1.3695 H   0  0  0  0  0  0  0  0  0  0  0  0
   -7.0272    2.3428    0.7992 H   0  0  0  0  0  0  0  0  0  0  0  0
   -7.2490    0.8496    1.5521 H   0  0  0  0  0  0  0  0  0  0  0  0
   -5.3743   -0.6212    1.3443 H   0  0  0  0  0  0  0  0  0  0  0  0
   -2.6651    1.6571   -2.1896 H   0  0  0  0  0  0  0  0  0  0  0  0
   -5.1448    1.8411   -2.2373 H   0  0  0  0  0  0  0  0  0  0  0  0
   -2.8779   -1.3883    2.2338 H   0  0  0  0  0  0  0  0  0  0  0  0
    2.4954   -1.7907    2.3382 H   0  0  0  0  0  0  0  0  0  0  0  0
    5.1166   -1.4122    1.5412 H   0  0  0  0  0  0  0  0  0  0  0  0
    5.3910    1.0368   -2.0414 H   0  0  0  0  0  0  0  0  0  0  0  0
    2.9087    1.2335   -2.0867 H   0  0  0  0  0  0  0  0  0  0  0  0
    7.2805   -0.7451    0.7634 H   0  0  0  0  0  0  0  0  0  0  0  0
    7.3445    1.5770    0.4118 H   0  0  0  0  0  0  0  0  0  0  0  0
    8.6319    0.8336   -0.3582 H   0  0  0  0  0  0  0  0  0  0  0  0
    7.0883   -0.8913   -2.2005 H   0  0  0  0  0  0  0  0  0  0  0  0
    6.9373   -2.1784   -1.1191 H   0  0  0  0  0  0  0  0  0  0  0  0
  1  2  1  0
  2  3  1  0
  2  4  1  0
  4  5  2  0
  5  6  1  0
  6  7  2  0
  7  8  1  0
  8  9  2  0
  7 10  1  0
 10 11  2  0
 11 12  1  0
 11 13  1  0
 13 14  2  0
 13 15  1  0
 15 16  2  0
 16 17  1  0
 16 18  1  0
 18 19  2  0
 19 20  1  0
 19 21  1  0
 21 22  2  0
 22 23  1  0
 23 24  2  0
 22 25  1  0
 25 26  1  0
 25 27  1  0
  9  4  1  0
 17 10  1  0
 24 18  1  0
 12  6  1  0
 20 15  1  0
  1 28  1  0
  1 29  1  0
  2 30  1  0
  3 31  1  0
  3 32  1  0
  5 33  1  0
  8 34  1  0
  9 35  1  0
 12 36  1  0
 20 37  1  0
 21 38  1  0
 23 39  1  0
 24 40  1  0
 25 41  1  0
 26 42  1  0
 26 43  1  0
 27 44  1  0
 27 45  1  0
M  CHG  2  10   1  16   1
M  END
$$$$
