
     RDKit          3D

 38 39  0  0  0  0  0  0  0  0999 V2000
   -3.6857    1.8585   -0.1978 C   0  0  0  0  0  0  0  0  0  0  0  0
   -4.7068    0.8134    0.2651 C   0  0  0  0  0  0  0  0  0  0  0  0
   -5.2858    0.0543   -0.9356 C   0  0  0  0  0  0  0  0  0  0  0  0
   -4.1214   -0.1573    1.3108 C   0  0  0  0  0  0  0  0  0  0  0  0
   -3.1490   -1.0379    0.7400 O   0  0  0  0  0  0  0  0  0  0  0  0
   -1.7708   -0.7918    0.5967 C   0  0  0  0  0  0  0  0  0  0  0  0
   -1.0188   -1.6535   -0.2198 C   0  0  0  0  0  0  0  0  0  0  0  0
    0.3560   -1.4467   -0.3924 C   0  0  0  0  0  0  0  0  0  0  0  0
    1.0056   -0.3798    0.2499 C   0  0  0  0  0  0  0  0  0  0  0  0
    0.2543    0.4758    1.0720 C   0  0  0  0  0  0  0  0  0  0  0  0
   -1.1167    0.2723    1.2470 C   0  0  0  0  0  0  0  0  0  0  0  0
    2.4595   -0.1699    0.0583 C   0  0  0  0  0  0  0  0  0  0  0  0
    3.2319   -0.9631   -0.7193 N   0  0  0  0  0  0  0  0  0  0  0  0
    4.5355   -0.5705   -0.7393 C   0  0  0  0  0  0  0  0  0  0  0  0
    5.5512   -1.3202   -1.5429 C   0  0  0  0  0  0  0  0  0  0  0  0
    4.8171    0.5608    0.0375 C   0  0  0  0  0  0  0  0  0  0  0  0
    3.3792    1.0589    0.7545 S   0  0  0  0  0  0  0  0  0  0  0  0
    6.1125    1.2354    0.2300 C   0  0  0  0  0  0  0  0  0  0  0  0
    6.1879    2.3576    1.0494 O   0  0  0  0  0  0  0  0  0  0  0  0
    7.1533    0.8097   -0.3377 O   0  0  0  0  0  0  0  0  0  0  0  0
   -1.6567   -2.7535   -0.8993 C   0  0  0  0  0  0  0  0  0  0  0  0
   -2.1694   -3.6360   -1.4448 N   0  0  0  0  0  0  0  0  0  0  0  0
   -4.1811    2.6048   -0.8549 H   0  0  0  0  0  0  0  0  0  0  0  0
   -3.2653    2.3997    0.6759 H   0  0  0  0  0  0  0  0  0  0  0  0
   -2.8610    1.3851   -0.7703 H   0  0  0  0  0  0  0  0  0  0  0  0
   -5.5434    1.3612    0.7531 H   0  0  0  0  0  0  0  0  0  0  0  0
   -4.4851   -0.4849   -1.4860 H   0  0  0  0  0  0  0  0  0  0  0  0
   -5.7807    0.7636   -1.6328 H   0  0  0  0  0  0  0  0  0  0  0  0
   -6.0452   -0.6812   -0.5944 H   0  0  0  0  0  0  0  0  0  0  0  0
   -3.7268    0.3846    2.1934 H   0  0  0  0  0  0  0  0  0  0  0  0
   -4.9537   -0.7845    1.6956 H   0  0  0  0  0  0  0  0  0  0  0  0
    0.9170   -2.1201   -1.0304 H   0  0  0  0  0  0  0  0  0  0  0  0
    0.7226    1.3054    1.5853 H   0  0  0  0  0  0  0  0  0  0  0  0
   -1.6478    0.9521    1.8945 H   0  0  0  0  0  0  0  0  0  0  0  0
    6.3444   -1.7150   -0.8742 H   0  0  0  0  0  0  0  0  0  0  0  0
    6.0011   -0.6483   -2.3033 H   0  0  0  0  0  0  0  0  0  0  0  0
    5.0735   -2.1752   -2.0663 H   0  0  0  0  0  0  0  0  0  0  0  0
    7.0685    2.8366    1.1954 H   0  0  0  0  0  0  0  0  0  0  0  0
  1  2  1  0
  2  3  1  0
  2  4  1  0
  4  5  1  0
  5  6  1  0
  6  7  2  0
  7  8  1  0
  8  9  2  0
  9 10  1  0
 10 11  2  0
  9 12  1  0
 12 13  2  0
 13 14  1  0
 14 15  1  0
 14 16  2  0
 16 17  1  0
 16 18  1  0
 18 19  1  0
 18 20  2  0
  7 21  1  0
 21 22  3  0
 11  6  1  0
 17 12  1  0
  1 23  1  0
  1 24  1  0
  1 25  1  0
  2 26  1  0
  3 27  1  0
  3 28  1  0
  3 29  1  0
  4 30  1  0
  4 31  1  0
  8 32  1  0
 10 33  1  0
 11 34  1  0
 15 35  1  0
 15 36  1  0
 15 37  1  0
 19 38  1  0
M  END
$$$$
