
     RDKit          3D

 24 24  0  0  0  0  0  0  0  0999 V2000
    1.8741    0.2543    0.9184 C   0  0  1  0  0  0  0  0  0  0  0  0
    3.1699    0.8721    1.2055 N   0  0  0  0  0  0  0  0  0  0  0  0
    1.0326    1.1482   -0.0171 C   0  0  0  0  0  0  0  0  0  0  0  0
   -0.3651    0.6091   -0.1933 C   0  0  0  0  0  0  0  0  0  0  0  0
   -0.6850   -0.1860   -1.3039 C   0  0  0  0  0  0  0  0  0  0  0  0
   -1.9717   -0.7156   -1.4535 C   0  0  0  0  0  0  0  0  0  0  0  0
   -2.3328   -1.7916   -2.9975 Br  0  0  0  0  0  0  0  0  0  0  0  0
   -2.9560   -0.4548   -0.4788 C   0  0  0  0  0  0  0  0  0  0  0  0
   -4.2503   -0.9651   -0.5942 O   0  0  0  0  0  0  0  0  0  0  0  0
   -2.6326    0.3335    0.6361 C   0  0  0  0  0  0  0  0  0  0  0  0
   -3.9419    0.7002    1.9829 Br  0  0  0  0  0  0  0  0  0  0  0  0
   -1.3445    0.8581    0.7786 C   0  0  0  0  0  0  0  0  0  0  0  0
    2.0938   -1.1065    0.3182 C   0  0  0  0  0  0  0  0  0  0  0  0
    2.8357   -1.2422   -0.8518 O   0  0  0  0  0  0  0  0  0  0  0  0
    1.5933   -2.1257    0.8651 O   0  0  0  0  0  0  0  0  0  0  0  0
    1.3285    0.1359    1.8824 H   0  0  0  0  0  0  0  0  0  0  0  0
    3.6420    1.1286    0.3073 H   0  0  0  0  0  0  0  0  0  0  0  0
    3.0073    1.7599    1.7346 H   0  0  0  0  0  0  0  0  0  0  0  0
    0.9706    2.1724    0.4117 H   0  0  0  0  0  0  0  0  0  0  0  0
    1.5347    1.2473   -1.0051 H   0  0  0  0  0  0  0  0  0  0  0  0
    0.0684   -0.3983   -2.0526 H   0  0  0  0  0  0  0  0  0  0  0  0
   -4.5478   -1.5392   -1.3722 H   0  0  0  0  0  0  0  0  0  0  0  0
   -1.1051    1.4579    1.6482 H   0  0  0  0  0  0  0  0  0  0  0  0
    2.9821   -2.1525   -1.2714 H   0  0  0  0  0  0  0  0  0  0  0  0
  1  2  1  0
  1  3  1  0
  3  4  1  0
  4  5  2  0
  5  6  1  0
  6  7  1  0
  6  8  2  0
  8  9  1  0
  8 10  1  0
 10 11  1  0
 10 12  2  0
  1 13  1  0
 13 14  1  0
 13 15  2  0
 12  4  1  0
  1 16  1  1
  2 17  1  0
  2 18  1  0
  3 19  1  0
  3 20  1  0
  5 21  1  0
  9 22  1  0
 12 23  1  0
 14 24  1  0
M  END
$$$$
