
     RDKit          3D

 25 24  0  0  0  0  0  0  0  0999 V2000
    3.1539    0.3332    1.1274 C   0  0  0  0  0  0  0  0  0  0  0  0
    1.8739   -0.3626    1.3009 N   0  0  0  0  0  0  0  0  0  0  0  0
    0.9125    0.0004    0.2419 C   0  0  2  0  0  0  0  0  0  0  0  0
   -0.5067   -0.4752    0.6382 C   0  0  0  0  0  0  0  0  0  0  0  0
   -1.6110   -0.1550   -0.4013 C   0  0  0  0  0  0  0  0  0  0  0  0
   -2.9303   -0.8144    0.0214 C   0  0  0  0  0  0  0  0  0  0  0  0
   -1.8182    1.3571   -0.5765 C   0  0  0  0  0  0  0  0  0  0  0  0
    1.3282   -0.6249   -1.0640 C   0  0  0  0  0  0  0  0  0  0  0  0
    1.4522    0.1670   -2.2011 O   0  0  0  0  0  0  0  0  0  0  0  0
    1.5493   -1.8642   -1.1338 O   0  0  0  0  0  0  0  0  0  0  0  0
    3.8372    0.0564    1.9579 H   0  0  0  0  0  0  0  0  0  0  0  0
    3.6392    0.0306    0.1754 H   0  0  0  0  0  0  0  0  0  0  0  0
    3.0130    1.4364    1.1430 H   0  0  0  0  0  0  0  0  0  0  0  0
    1.4909   -0.0490    2.2240 H   0  0  0  0  0  0  0  0  0  0  0  0
    0.8915    1.1070    0.1288 H   0  0  0  0  0  0  0  0  0  0  0  0
   -0.4724   -1.5752    0.8048 H   0  0  0  0  0  0  0  0  0  0  0  0
   -0.7863   -0.0094    1.6092 H   0  0  0  0  0  0  0  0  0  0  0  0
   -1.3291   -0.5860   -1.3866 H   0  0  0  0  0  0  0  0  0  0  0  0
   -3.7175   -0.6246   -0.7394 H   0  0  0  0  0  0  0  0  0  0  0  0
   -3.2729   -0.4141    0.9999 H   0  0  0  0  0  0  0  0  0  0  0  0
   -2.7997   -1.9142    0.1095 H   0  0  0  0  0  0  0  0  0  0  0  0
   -0.9297    1.8219   -1.0506 H   0  0  0  0  0  0  0  0  0  0  0  0
   -2.0071    1.8445    0.4040 H   0  0  0  0  0  0  0  0  0  0  0  0
   -2.6845    1.5525   -1.2440 H   0  0  0  0  0  0  0  0  0  0  0  0
    1.7234   -0.2381   -3.0890 H   0  0  0  0  0  0  0  0  0  0  0  0
  1  2  1  0
  2  3  1  0
  3  4  1  0
  4  5  1  0
  5  6  1  0
  5  7  1  0
  3  8  1  0
  8  9  1  0
  8 10  2  0
  1 11  1  0
  1 12  1  0
  1 13  1  0
  2 14  1  0
  3 15  1  6
  4 16  1  0
  4 17  1  0
  5 18  1  0
  6 19  1  0
  6 20  1  0
  6 21  1  0
  7 22  1  0
  7 23  1  0
  7 24  1  0
  9 25  1  0
M  END
$$$$
