
     RDKit          3D

 54 56  0  0  0  0  0  0  0  0999 V2000
   -1.6718   -1.2690   -1.7877 C   0  0  1  0  0  0  0  0  0  0  0  0
   -2.5404   -1.4280   -3.0511 C   0  0  0  0  0  0  0  0  0  0  0  0
   -2.1464   -0.4868   -4.0116 O   0  0  0  0  0  0  0  0  0  0  0  0
   -1.8371    0.0816   -1.2350 N   0  0  0  0  0  0  0  0  0  0  0  0
   -0.8259    0.7290   -0.4522 C   0  0  0  0  0  0  0  0  0  0  0  0
   -1.0385    2.0021    0.0014 N   0  0  0  0  0  0  0  0  0  0  0  0
   -0.0555    2.5977    0.7184 C   0  0  0  0  0  0  0  0  0  0  0  0
    1.1176    1.9858    0.9967 C   0  0  0  0  0  0  0  0  0  0  0  0
    1.9164    2.7985    1.7134 N   0  0  0  0  0  0  0  0  0  0  0  0
    1.1601    3.9231    1.8449 C   0  0  0  0  0  0  0  0  0  0  0  0
   -0.0566    3.8292    1.2439 N   0  0  0  0  0  0  0  0  0  0  0  0
   -1.1196    4.8383    1.1808 C   0  0  0  0  0  0  0  0  0  0  0  0
   -0.6251    6.0869    0.4459 C   0  0  0  0  0  0  0  0  0  0  0  0
   -1.6097    5.1840    2.5894 C   0  0  0  0  0  0  0  0  0  0  0  0
    1.3472    0.6881    0.5555 C   0  0  0  0  0  0  0  0  0  0  0  0
    2.5947    0.0238    0.8050 N   0  0  0  0  0  0  0  0  0  0  0  0
    2.7729   -1.3958    0.6792 C   0  0  0  0  0  0  0  0  0  0  0  0
    1.7708   -2.2926    1.0885 C   0  0  0  0  0  0  0  0  0  0  0  0
    1.9797   -3.6724    0.9979 C   0  0  0  0  0  0  0  0  0  0  0  0
    0.7379   -4.7850    1.5419 Cl  0  0  0  0  0  0  0  0  0  0  0  0
    3.1883   -4.1665    0.4979 C   0  0  0  0  0  0  0  0  0  0  0  0
    4.2006   -3.2824    0.1007 C   0  0  0  0  0  0  0  0  0  0  0  0
    5.4412   -3.7880   -0.3995 N   0  0  0  0  0  0  0  0  0  0  0  0
    3.9926   -1.8994    0.2033 C   0  0  0  0  0  0  0  0  0  0  0  0
    0.3581    0.0890   -0.1750 N   0  0  0  0  0  0  0  0  0  0  0  0
   -1.9611   -2.3330   -0.6892 C   0  0  0  0  0  0  0  0  0  0  0  0
   -1.5477   -3.7459   -1.1257 C   0  0  0  0  0  0  0  0  0  0  0  0
   -3.4208   -2.3242   -0.2095 C   0  0  0  0  0  0  0  0  0  0  0  0
   -0.6140   -1.3880   -2.1147 H   0  0  0  0  0  0  0  0  0  0  0  0
   -2.4154   -2.4467   -3.4762 H   0  0  0  0  0  0  0  0  0  0  0  0
   -3.6134   -1.2715   -2.8036 H   0  0  0  0  0  0  0  0  0  0  0  0
   -2.7408   -0.6249   -4.7944 H   0  0  0  0  0  0  0  0  0  0  0  0
   -2.7199    0.6089   -1.4256 H   0  0  0  0  0  0  0  0  0  0  0  0
    1.4998    4.8024    2.3766 H   0  0  0  0  0  0  0  0  0  0  0  0
   -1.9844    4.4301    0.6118 H   0  0  0  0  0  0  0  0  0  0  0  0
    0.2120    6.5645    0.9984 H   0  0  0  0  0  0  0  0  0  0  0  0
   -0.2718    5.8099   -0.5700 H   0  0  0  0  0  0  0  0  0  0  0  0
   -1.4517    6.8218    0.3418 H   0  0  0  0  0  0  0  0  0  0  0  0
   -1.9580    4.2627    3.1028 H   0  0  0  0  0  0  0  0  0  0  0  0
   -2.4594    5.8975    2.5341 H   0  0  0  0  0  0  0  0  0  0  0  0
   -0.7950    5.6424    3.1895 H   0  0  0  0  0  0  0  0  0  0  0  0
    3.4345    0.6096    1.0160 H   0  0  0  0  0  0  0  0  0  0  0  0
    0.8437   -1.9232    1.5069 H   0  0  0  0  0  0  0  0  0  0  0  0
    3.3443   -5.2360    0.4300 H   0  0  0  0  0  0  0  0  0  0  0  0
    6.2030   -3.1379   -0.6961 H   0  0  0  0  0  0  0  0  0  0  0  0
    5.6070   -4.8162   -0.4777 H   0  0  0  0  0  0  0  0  0  0  0  0
    4.7757   -1.2135   -0.0963 H   0  0  0  0  0  0  0  0  0  0  0  0
   -1.3309   -2.0803    0.1914 H   0  0  0  0  0  0  0  0  0  0  0  0
   -1.6368   -4.4462   -0.2685 H   0  0  0  0  0  0  0  0  0  0  0  0
   -2.1968   -4.1239   -1.9422 H   0  0  0  0  0  0  0  0  0  0  0  0
   -0.4904   -3.7513   -1.4666 H   0  0  0  0  0  0  0  0  0  0  0  0
   -4.1054   -2.6920   -1.0024 H   0  0  0  0  0  0  0  0  0  0  0  0
   -3.7277   -1.3004    0.0908 H   0  0  0  0  0  0  0  0  0  0  0  0
   -3.5299   -2.9863    0.6759 H   0  0  0  0  0  0  0  0  0  0  0  0
  1  2  1  0
  2  3  1  0
  1  4  1  0
  4  5  1  0
  5  6  2  0
  6  7  1  0
  7  8  2  0
  8  9  1  0
  9 10  2  0
 10 11  1  0
 11 12  1  0
 12 13  1  0
 12 14  1  0
  8 15  1  0
 15 16  1  0
 16 17  1  0
 17 18  2  0
 18 19  1  0
 19 20  1  0
 19 21  2  0
 21 22  1  0
 22 23  1  0
 22 24  2  0
 15 25  2  0
  1 26  1  0
 26 27  1  0
 26 28  1  0
 25  5  1  0
 11  7  1  0
 24 17  1  0
  1 29  1  6
  2 30  1  0
  2 31  1  0
  3 32  1  0
  4 33  1  0
 10 34  1  0
 12 35  1  0
 13 36  1  0
 13 37  1  0
 13 38  1  0
 14 39  1  0
 14 40  1  0
 14 41  1  0
 16 42  1  0
 18 43  1  0
 21 44  1  0
 23 45  1  0
 23 46  1  0
 24 47  1  0
 26 48  1  0
 27 49  1  0
 27 50  1  0
 27 51  1  0
 28 52  1  0
 28 53  1  0
 28 54  1  0
M  END
$$$$
