
     RDKit          2D

 44 48  0  0  0  0  0  0  0  0999 V2000
    0.7500   -1.2990    0.0000 C   0  0  0  0  0  0  0  0  0  0  0  0
    1.5000    0.0000    0.0000 C   0  0  0  0  0  0  0  0  0  0  0  0
    0.7500    1.2990    0.0000 C   0  0  0  0  0  0  0  0  0  0  0  0
    1.5000    2.5981    0.0000 C   0  0  0  0  0  0  0  0  0  0  0  0
    0.7500    3.8971    0.0000 C   0  0  0  0  0  0  0  0  0  0  0  0
   -0.1996    2.0185    0.0000 C   0  0  0  0  0  0  0  0  0  0  0  0
   -1.5000    0.0000    0.0000 C   0  0  0  0  0  0  0  0  0  0  0  0
   -0.7500   -1.2990    0.0000 C   0  0  0  0  0  0  0  0  0  0  0  0
   -0.7500    1.2990    0.0000 N   0  0  0  0  0  0  0  0  0  0  0  0
   -1.5000    2.5981    0.0000 C   0  0  0  0  0  0  0  0  0  0  0  0
   -0.7500    3.8971    0.0000 C   0  0  0  0  0  0  0  0  0  0  0  0
   -1.5000    5.1962    0.0000 O   0  0  0  0  0  0  0  0  0  0  0  0
    2.1595   -1.8121    0.0000 O   0  0  0  0  0  0  0  0  0  0  0  0
    2.4200   -3.2893    0.0000 C   0  0  0  0  0  0  0  0  0  0  0  0
    1.2709   -4.2535    0.0000 O   0  0  0  0  0  0  0  0  0  0  0  0
    3.8296   -3.8023    0.0000 C   0  0  0  0  0  0  0  0  0  0  0  0
    5.0731   -2.9635    0.0000 C   0  0  0  0  0  0  0  0  0  0  0  0
    6.2551   -3.8870    0.0000 N   0  0  0  0  0  0  0  0  0  0  0  0
    5.7421   -5.2966    0.0000 C   0  0  0  0  0  0  0  0  0  0  0  0
    4.2430   -5.2442    0.0000 C   0  0  0  0  0  0  0  0  0  0  0  0
    3.4481   -6.5163    0.0000 C   0  0  0  0  0  0  0  0  0  0  0  0
    4.1523   -7.8407    0.0000 C   0  0  0  0  0  0  0  0  0  0  0  0
    5.6514   -7.8930    0.0000 C   0  0  0  0  0  0  0  0  0  0  0  0
    6.4463   -6.6210    0.0000 C   0  0  0  0  0  0  0  0  0  0  0  0
    0.4895   -2.7762    0.0000 H   0  0  0  0  0  0  0  0  0  0  0  0
    2.7134    0.5917    0.0000 H   0  0  0  0  0  0  0  0  0  0  0  0
    2.6491   -0.9642    0.0000 H   0  0  0  0  0  0  0  0  0  0  0  0
    2.1000    1.2990    0.0000 H   0  0  0  0  0  0  0  0  0  0  0  0
    2.6491    3.5623    0.0000 H   0  0  0  0  0  0  0  0  0  0  0  0
    2.8482    1.9406    0.0000 H   0  0  0  0  0  0  0  0  0  0  0  0
    1.5000    5.1962    0.0000 H   0  0  0  0  0  0  0  0  0  0  0  0
   -1.6530    1.5099    0.0000 H   0  0  0  0  0  0  0  0  0  0  0  0
   -2.3389    2.7435    0.0000 H   0  0  0  0  0  0  0  0  0  0  0  0
   -3.0000    0.0000    0.0000 H   0  0  0  0  0  0  0  0  0  0  0  0
   -0.4895   -2.7762    0.0000 H   0  0  0  0  0  0  0  0  0  0  0  0
   -2.1595   -1.8121    0.0000 H   0  0  0  0  0  0  0  0  0  0  0  0
   -2.1686    2.1639    0.0000 H   0  0  0  0  0  0  0  0  0  0  0  0
   -2.6491    3.5623    0.0000 H   0  0  0  0  0  0  0  0  0  0  0  0
    5.1255   -1.4644    0.0000 H   0  0  0  0  0  0  0  0  0  0  0  0
    7.6970   -3.4736    0.0000 H   0  0  0  0  0  0  0  0  0  0  0  0
    1.9490   -6.4639    0.0000 H   0  0  0  0  0  0  0  0  0  0  0  0
    3.3575   -9.1128    0.0000 H   0  0  0  0  0  0  0  0  0  0  0  0
    6.3556   -9.2175    0.0000 H   0  0  0  0  0  0  0  0  0  0  0  0
    7.9454   -6.6733    0.0000 H   0  0  0  0  0  0  0  0  0  0  0  0
  1  2  1  0
  2  3  1  0
  3  4  1  0
  4  5  1  0
  5  6  1  0
  6  7  1  0
  7  8  1  0
  7  9  1  0
  9 10  1  0
 10 11  1  0
 11 12  2  0
  1 13  1  0
 13 14  1  0
 14 15  2  0
 14 16  1  0
 16 17  2  0
 17 18  1  0
 18 19  1  0
 19 20  2  0
 20 21  1  0
 21 22  2  0
 22 23  1  0
 23 24  2  0
  8  1  1  0
 20 16  1  0
  9  3  1  0
 24 19  1  0
 11  5  1  0
  1 25  1  1
  2 26  1  0
  2 27  1  0
  3 28  1  1
  4 29  1  0
  4 30  1  0
  5 31  1  1
  6 32  1  0
  6 33  1  0
  7 34  1  6
  8 35  1  0
  8 36  1  0
 10 37  1  0
 10 38  1  0
 17 39  1  0
 18 40  1  0
 21 41  1  0
 22 42  1  0
 23 43  1  0
 24 44  1  0
M  END
$$$$
