
     RDKit          3D

 68 71  0  0  0  0  0  0  0  0999 V2000
    2.6627    0.2928    0.3801 C   0  0  1  0  0  0  0  0  0  0  0  0
    2.7766    1.4527   -0.6500 C   0  0  0  0  0  0  0  0  0  0  0  0
    1.3696    1.7242   -1.1967 C   0  0  0  0  0  0  0  0  0  0  0  0
    0.4644    0.8960   -0.3026 C   0  0  1  0  0  0  0  0  0  0  0  0
   -0.9764    0.6082   -0.7923 C   0  0  2  0  0  0  0  0  0  0  0  0
   -1.7255    1.9491   -1.0783 C   0  0  1  0  0  0  0  0  0  0  0  0
   -1.4654    2.3398   -2.4036 O   0  0  0  0  0  0  0  0  0  0  0  0
   -3.2522    1.8524   -0.8551 C   0  0  0  0  0  0  0  0  0  0  0  0
   -3.7669    0.4407   -1.1819 C   0  0  2  0  0  0  0  0  0  0  0  0
   -5.3076    0.4055   -1.3586 C   0  0  0  0  0  0  0  0  0  0  0  0
   -6.0888    0.3439   -0.0390 C   0  0  2  0  0  0  0  0  0  0  0  0
   -5.9696    1.5483    0.6735 O   0  0  0  0  0  0  0  0  0  0  0  0
   -5.5951   -0.8228    0.8168 C   0  0  0  0  0  0  0  0  0  0  0  0
   -4.0973   -0.6990    1.1130 C   0  0  0  0  0  0  0  0  0  0  0  0
   -3.2018   -0.6248   -0.1654 C   0  0  1  0  0  0  0  0  0  0  0  0
   -3.2130   -2.0063   -0.8780 C   0  0  0  0  0  0  0  0  0  0  0  0
   -1.7293   -0.2247    0.2948 C   0  0  1  0  0  0  0  0  0  0  0  0
   -0.8903   -1.4224    0.8474 C   0  0  0  0  0  0  0  0  0  0  0  0
    0.5595   -1.0474    1.2216 C   0  0  0  0  0  0  0  0  0  0  0  0
    1.2851   -0.3597    0.0369 C   0  0  2  0  0  0  0  0  0  0  0  0
    1.4281   -1.3362   -1.1752 C   0  0  0  0  0  0  0  0  0  0  0  0
    3.9401   -0.6205    0.3947 C   0  0  2  0  0  0  0  0  0  0  0  0
    3.7994   -1.7795    1.4024 C   0  0  0  0  0  0  0  0  0  0  0  0
    5.2119    0.2069    0.7443 C   0  0  0  0  0  0  0  0  0  0  0  0
    6.5057   -0.4572    0.2462 C   0  0  0  0  0  0  0  0  0  0  0  0
    7.6906    0.3948    0.5760 C   0  0  0  0  0  0  0  0  0  0  0  0
    8.3132    0.2660    1.8136 O   0  0  0  0  0  0  0  0  0  0  0  0
    8.0995    1.2555   -0.2486 O   0  0  0  0  0  0  0  0  0  0  0  0
    2.5806    0.7569    1.3910 H   0  0  0  0  0  0  0  0  0  0  0  0
    3.4496    1.1832   -1.4938 H   0  0  0  0  0  0  0  0  0  0  0  0
    3.1714    2.3678   -0.1564 H   0  0  0  0  0  0  0  0  0  0  0  0
    1.2878    1.3904   -2.2542 H   0  0  0  0  0  0  0  0  0  0  0  0
    1.1190    2.8058   -1.1356 H   0  0  0  0  0  0  0  0  0  0  0  0
    0.3532    1.4942    0.6366 H   0  0  0  0  0  0  0  0  0  0  0  0
   -0.9462    0.0235   -1.7351 H   0  0  0  0  0  0  0  0  0  0  0  0
   -1.3511    2.7378   -0.3824 H   0  0  0  0  0  0  0  0  0  0  0  0
   -1.6243    3.3187   -2.4553 H   0  0  0  0  0  0  0  0  0  0  0  0
   -3.7661    2.6125   -1.4835 H   0  0  0  0  0  0  0  0  0  0  0  0
   -3.4831    2.0995    0.2033 H   0  0  0  0  0  0  0  0  0  0  0  0
   -3.3627    0.2068   -2.1946 H   0  0  0  0  0  0  0  0  0  0  0  0
   -5.6476    1.2841   -1.9490 H   0  0  0  0  0  0  0  0  0  0  0  0
   -5.5817   -0.4840   -1.9659 H   0  0  0  0  0  0  0  0  0  0  0  0
   -7.1638    0.1616   -0.2718 H   0  0  0  0  0  0  0  0  0  0  0  0
   -6.5168    2.2220    0.1915 H   0  0  0  0  0  0  0  0  0  0  0  0
   -5.8079   -1.7862    0.3059 H   0  0  0  0  0  0  0  0  0  0  0  0
   -6.1548   -0.8319    1.7774 H   0  0  0  0  0  0  0  0  0  0  0  0
   -3.9557    0.2097    1.7380 H   0  0  0  0  0  0  0  0  0  0  0  0
   -3.7919   -1.5624    1.7427 H   0  0  0  0  0  0  0  0  0  0  0  0
   -3.0248   -2.8350   -0.1631 H   0  0  0  0  0  0  0  0  0  0  0  0
   -2.4428   -2.0382   -1.6781 H   0  0  0  0  0  0  0  0  0  0  0  0
   -4.1918   -2.2173   -1.3529 H   0  0  0  0  0  0  0  0  0  0  0  0
   -1.8186    0.4700    1.1615 H   0  0  0  0  0  0  0  0  0  0  0  0
   -1.3879   -1.8251    1.7554 H   0  0  0  0  0  0  0  0  0  0  0  0
   -0.8420   -2.2536    0.1186 H   0  0  0  0  0  0  0  0  0  0  0  0
    1.0792   -1.9745    1.5277 H   0  0  0  0  0  0  0  0  0  0  0  0
    0.5422   -0.3759    2.1084 H   0  0  0  0  0  0  0  0  0  0  0  0
    1.9422   -2.2687   -0.8728 H   0  0  0  0  0  0  0  0  0  0  0  0
    0.4563   -1.6459   -1.6009 H   0  0  0  0  0  0  0  0  0  0  0  0
    2.0139   -0.8820   -2.0008 H   0  0  0  0  0  0  0  0  0  0  0  0
    4.0780   -1.0552   -0.6192 H   0  0  0  0  0  0  0  0  0  0  0  0
    3.1467   -2.5770    1.0021 H   0  0  0  0  0  0  0  0  0  0  0  0
    3.3951   -1.4127    2.3700 H   0  0  0  0  0  0  0  0  0  0  0  0
    4.7726   -2.2680    1.6056 H   0  0  0  0  0  0  0  0  0  0  0  0
    5.1694    1.2128    0.2798 H   0  0  0  0  0  0  0  0  0  0  0  0
    5.2682    0.3666    1.8445 H   0  0  0  0  0  0  0  0  0  0  0  0
    6.6489   -1.4517    0.7149 H   0  0  0  0  0  0  0  0  0  0  0  0
    6.4539   -0.6015   -0.8552 H   0  0  0  0  0  0  0  0  0  0  0  0
    9.1062    0.8466    2.0590 H   0  0  0  0  0  0  0  0  0  0  0  0
  1  2  1  0
  2  3  1  0
  3  4  1  0
  4  5  1  0
  5  6  1  0
  6  7  1  0
  6  8  1  0
  8  9  1  0
  9 10  1  0
 10 11  1  0
 11 12  1  0
 11 13  1  0
 13 14  1  0
 14 15  1  0
 15 16  1  6
 15 17  1  0
 17 18  1  0
 18 19  1  0
 19 20  1  0
 20 21  1  6
  1 22  1  0
 22 23  1  0
 22 24  1  0
 24 25  1  0
 25 26  1  0
 26 27  1  0
 26 28  2  0
 20  1  1  0
 20  4  1  0
 17  5  1  0
 15  9  1  0
  1 29  1  1
  2 30  1  0
  2 31  1  0
  3 32  1  0
  3 33  1  0
  4 34  1  1
  5 35  1  6
  6 36  1  1
  7 37  1  0
  8 38  1  0
  8 39  1  0
  9 40  1  6
 10 41  1  0
 10 42  1  0
 11 43  1  6
 12 44  1  0
 13 45  1  0
 13 46  1  0
 14 47  1  0
 14 48  1  0
 16 49  1  0
 16 50  1  0
 16 51  1  0
 17 52  1  1
 18 53  1  0
 18 54  1  0
 19 55  1  0
 19 56  1  0
 21 57  1  0
 21 58  1  0
 21 59  1  0
 22 60  1  6
 23 61  1  0
 23 62  1  0
 23 63  1  0
 24 64  1  0
 24 65  1  0
 25 66  1  0
 25 67  1  0
 27 68  1  0
M  END
$$$$
