
     RDKit          3D

 26 25  0  0  0  0  0  0  0  0999 V2000
    4.4534    0.5971   -0.6345 N   0  0  0  0  0  0  0  0  0  0  0  0
    4.0499   -0.4789    0.2706 C   0  0  0  0  0  0  0  0  0  0  0  0
    2.7627   -0.1460    1.0449 C   0  0  0  0  0  0  0  0  0  0  0  0
    1.5282   -0.0996    0.1418 C   0  0  0  0  0  0  0  0  0  0  0  0
    0.0301    0.1316    1.1575 S   0  0  0  0  0  0  0  0  0  0  0  0
   -1.1198    0.1231   -0.2628 C   0  0  0  0  0  0  0  0  0  0  0  0
   -2.5686    0.2917    0.2157 C   0  0  2  0  0  0  0  0  0  0  0  0
   -2.9429   -0.8368    1.0738 N   0  0  0  0  0  0  0  0  0  0  0  0
   -3.5223    0.4197   -0.9883 C   0  0  0  0  0  0  0  0  0  0  0  0
   -4.8282    0.6970   -0.5571 O   0  0  0  0  0  0  0  0  0  0  0  0
    4.4441    1.5070   -0.1189 H   0  0  0  0  0  0  0  0  0  0  0  0
    3.7690    0.6605   -1.4217 H   0  0  0  0  0  0  0  0  0  0  0  0
    3.9181   -1.4211   -0.3050 H   0  0  0  0  0  0  0  0  0  0  0  0
    4.8690   -0.6493    1.0018 H   0  0  0  0  0  0  0  0  0  0  0  0
    2.8791    0.8256    1.5727 H   0  0  0  0  0  0  0  0  0  0  0  0
    2.6114   -0.9331    1.8155 H   0  0  0  0  0  0  0  0  0  0  0  0
    1.4419   -1.0513   -0.4256 H   0  0  0  0  0  0  0  0  0  0  0  0
    1.6106    0.7479   -0.5704 H   0  0  0  0  0  0  0  0  0  0  0  0
   -0.8516    0.9623   -0.9405 H   0  0  0  0  0  0  0  0  0  0  0  0
   -1.0155   -0.8331   -0.8203 H   0  0  0  0  0  0  0  0  0  0  0  0
   -2.6295    1.2315    0.8096 H   0  0  0  0  0  0  0  0  0  0  0  0
   -3.0630   -1.6969    0.4899 H   0  0  0  0  0  0  0  0  0  0  0  0
   -3.8612   -0.6294    1.5288 H   0  0  0  0  0  0  0  0  0  0  0  0
   -3.4955   -0.5047   -1.6118 H   0  0  0  0  0  0  0  0  0  0  0  0
   -3.1891    1.2621   -1.6316 H   0  0  0  0  0  0  0  0  0  0  0  0
   -5.2806   -0.1769   -0.4268 H   0  0  0  0  0  0  0  0  0  0  0  0
  1  2  1  0
  2  3  1  0
  3  4  1  0
  4  5  1  0
  5  6  1  0
  6  7  1  0
  7  8  1  0
  7  9  1  0
  9 10  1  0
  1 11  1  0
  1 12  1  0
  2 13  1  0
  2 14  1  0
  3 15  1  0
  3 16  1  0
  4 17  1  0
  4 18  1  0
  6 19  1  0
  6 20  1  0
  7 21  1  1
  8 22  1  0
  8 23  1  0
  9 24  1  0
  9 25  1  0
 10 26  1  0
M  END
$$$$
