
     RDKit          3D

 78 85  0  0  0  0  0  0  0  0999 V2000
   -0.6786   -0.1992   -0.6308 C   0  0  1  0  0  0  0  0  0  0  0  0
    0.2142   -1.0180   -1.5730 C   0  0  0  0  0  0  0  0  0  0  0  0
   -0.1871   -2.3611   -1.3201 O   0  0  0  0  0  0  0  0  0  0  0  0
   -0.8629   -2.4451   -0.1135 C   0  0  0  0  0  0  0  0  0  0  0  0
   -1.2517   -3.5323    0.3873 O   0  0  0  0  0  0  0  0  0  0  0  0
   -0.9162   -1.1257    0.5574 C   0  0  2  0  0  0  0  0  0  0  0  0
   -2.1649   -0.6846    1.3465 C   0  0  2  0  0  0  0  0  0  0  0  0
   -3.4798   -1.0780    0.6779 C   0  0  0  0  0  0  0  0  0  0  0  0
   -4.1259   -0.2367   -0.2471 C   0  0  0  0  0  0  0  0  0  0  0  0
   -5.3264   -0.6306   -0.8637 C   0  0  0  0  0  0  0  0  0  0  0  0
   -5.9919    0.1877   -1.7906 O   0  0  0  0  0  0  0  0  0  0  0  0
   -5.5394    1.4733   -2.2038 C   0  0  0  0  0  0  0  0  0  0  0  0
   -5.8869   -1.8761   -0.5526 C   0  0  0  0  0  0  0  0  0  0  0  0
   -7.0777   -2.2534   -1.1756 O   0  0  0  0  0  0  0  0  0  0  0  0
   -5.2590   -2.7288    0.3719 C   0  0  0  0  0  0  0  0  0  0  0  0
   -5.8508   -3.9700    0.6575 O   0  0  0  0  0  0  0  0  0  0  0  0
   -5.3172   -4.9319    1.5618 C   0  0  0  0  0  0  0  0  0  0  0  0
   -4.0599   -2.3195    0.9831 C   0  0  0  0  0  0  0  0  0  0  0  0
   -2.0866    0.8185    1.6269 C   0  0  0  0  0  0  0  0  0  0  0  0
   -2.9522    1.3621    2.6023 C   0  0  0  0  0  0  0  0  0  0  0  0
   -2.9322    2.7345    2.8127 C   0  0  0  0  0  0  0  0  0  0  0  0
   -2.1152    3.5587    2.1149 C   0  0  0  0  0  0  0  0  0  0  0  0
   -2.3113    4.8617    2.5303 O   0  0  0  0  0  0  0  0  0  0  0  0
   -3.3165    4.8543    3.5531 C   0  0  0  0  0  0  0  0  0  0  0  0
   -3.6855    3.4766    3.7018 O   0  0  0  0  0  0  0  0  0  0  0  0
   -1.2405    3.0863    1.1447 C   0  0  0  0  0  0  0  0  0  0  0  0
   -1.2133    1.6989    0.8811 C   0  0  0  0  0  0  0  0  0  0  0  0
   -0.2041    1.1718   -0.1366 C   0  0  1  0  0  0  0  0  0  0  0  0
    1.0597    1.0487    0.5008 O   0  0  0  0  0  0  0  0  0  0  0  0
    1.9946    1.9990    0.0200 C   0  0  2  0  0  0  0  0  0  0  0  0
    2.5011    1.5651   -1.2464 O   0  0  0  0  0  0  0  0  0  0  0  0
    3.7754    0.9373   -1.1801 C   0  0  2  0  0  0  0  0  0  0  0  0
    4.0201    0.0517   -2.4132 C   0  0  0  0  0  0  0  0  0  0  0  0
    4.0041   -1.3250   -2.0823 O   0  0  0  0  0  0  0  0  0  0  0  0
    4.9848   -1.6442   -1.0926 C   0  0  2  0  0  0  0  0  0  0  0  0
    5.1191   -0.6815   -0.0473 O   0  0  0  0  0  0  0  0  0  0  0  0
    3.9377    0.0752    0.0767 C   0  0  1  0  0  0  0  0  0  0  0  0
    3.9896    0.9904    1.3085 C   0  0  2  0  0  0  0  0  0  0  0  0
    3.5835    0.2601    2.4376 O   0  0  0  0  0  0  0  0  0  0  0  0
    3.0746    2.2355    1.1126 C   0  0  1  0  0  0  0  0  0  0  0  0
    3.8490    3.3509    0.7495 O   0  0  0  0  0  0  0  0  0  0  0  0
    6.3151   -1.8888   -1.7427 C   0  0  0  0  0  0  0  0  0  0  0  0
    7.3459   -0.9664   -1.8876 C   0  0  0  0  0  0  0  0  0  0  0  0
    8.4361   -1.4667   -2.6092 C   0  0  0  0  0  0  0  0  0  0  0  0
    8.2634   -2.7737   -3.0463 C   0  0  0  0  0  0  0  0  0  0  0  0
    6.7513   -3.3050   -2.5370 S   0  0  0  0  0  0  0  0  0  0  0  0
   -1.6283   -0.0465   -1.1883 H   0  0  0  0  0  0  0  0  0  0  0  0
    0.0466   -0.7519   -2.6382 H   0  0  0  0  0  0  0  0  0  0  0  0
    1.2845   -0.9019   -1.3147 H   0  0  0  0  0  0  0  0  0  0  0  0
   -0.0417   -1.0929    1.2471 H   0  0  0  0  0  0  0  0  0  0  0  0
   -2.1135   -1.1976    2.3336 H   0  0  0  0  0  0  0  0  0  0  0  0
   -3.6979    0.7275   -0.4796 H   0  0  0  0  0  0  0  0  0  0  0  0
   -4.5414    1.3909   -2.6840 H   0  0  0  0  0  0  0  0  0  0  0  0
   -6.2552    1.8894   -2.9419 H   0  0  0  0  0  0  0  0  0  0  0  0
   -5.4893    2.1592   -1.3318 H   0  0  0  0  0  0  0  0  0  0  0  0
   -7.5288   -3.1410   -0.9901 H   0  0  0  0  0  0  0  0  0  0  0  0
   -5.9864   -5.8161    1.5865 H   0  0  0  0  0  0  0  0  0  0  0  0
   -5.2577   -4.5030    2.5844 H   0  0  0  0  0  0  0  0  0  0  0  0
   -4.3108   -5.2574    1.2232 H   0  0  0  0  0  0  0  0  0  0  0  0
   -3.5693   -2.9639    1.6998 H   0  0  0  0  0  0  0  0  0  0  0  0
   -3.6283    0.7334    3.1680 H   0  0  0  0  0  0  0  0  0  0  0  0
   -4.1942    5.4536    3.2321 H   0  0  0  0  0  0  0  0  0  0  0  0
   -2.8977    5.2437    4.5047 H   0  0  0  0  0  0  0  0  0  0  0  0
   -0.6021    3.7772    0.6110 H   0  0  0  0  0  0  0  0  0  0  0  0
   -0.1959    1.8445   -1.0288 H   0  0  0  0  0  0  0  0  0  0  0  0
    1.5082    2.9900   -0.1308 H   0  0  0  0  0  0  0  0  0  0  0  0
    4.5588    1.7295   -1.1905 H   0  0  0  0  0  0  0  0  0  0  0  0
    4.9870    0.3156   -2.8965 H   0  0  0  0  0  0  0  0  0  0  0  0
    3.2313    0.2373   -3.1729 H   0  0  0  0  0  0  0  0  0  0  0  0
    4.6742   -2.6003   -0.6195 H   0  0  0  0  0  0  0  0  0  0  0  0
    3.0606   -0.6063    0.1893 H   0  0  0  0  0  0  0  0  0  0  0  0
    5.0449    1.3262    1.4507 H   0  0  0  0  0  0  0  0  0  0  0  0
    3.8937    0.7668    3.2332 H   0  0  0  0  0  0  0  0  0  0  0  0
    2.5427    2.4664    2.0665 H   0  0  0  0  0  0  0  0  0  0  0  0
    4.3080    3.6627    1.5730 H   0  0  0  0  0  0  0  0  0  0  0  0
    7.3101    0.0408   -1.4933 H   0  0  0  0  0  0  0  0  0  0  0  0
    9.3256   -0.8866   -2.8158 H   0  0  0  0  0  0  0  0  0  0  0  0
    8.9765   -3.3456   -3.6243 H   0  0  0  0  0  0  0  0  0  0  0  0
  1  2  1  0
  2  3  1  0
  3  4  1  0
  4  5  2  0
  4  6  1  0
  6  7  1  0
  7  8  1  0
  8  9  2  0
  9 10  1  0
 10 11  1  0
 11 12  1  0
 10 13  2  0
 13 14  1  0
 13 15  1  0
 15 16  1  0
 16 17  1  0
 15 18  2  0
  7 19  1  0
 19 20  2  0
 20 21  1  0
 21 22  2  0
 22 23  1  0
 23 24  1  0
 24 25  1  0
 22 26  1  0
 26 27  2  0
 27 28  1  0
 28 29  1  0
 29 30  1  0
 30 31  1  0
 31 32  1  0
 32 33  1  0
 33 34  1  0
 34 35  1  0
 35 36  1  0
 36 37  1  0
 37 38  1  0
 38 39  1  0
 38 40  1  0
 40 41  1  0
 35 42  1  0
 42 43  2  0
 43 44  1  0
 44 45  2  0
 45 46  1  0
  6  1  1  0
 18  8  1  0
 27 19  1  0
 40 30  1  0
 46 42  1  0
 28  1  1  0
 37 32  1  0
 25 21  1  0
  1 47  1  6
  2 48  1  0
  2 49  1  0
  6 50  1  1
  7 51  1  1
  9 52  1  0
 12 53  1  0
 12 54  1  0
 12 55  1  0
 14 56  1  0
 17 57  1  0
 17 58  1  0
 17 59  1  0
 18 60  1  0
 20 61  1  0
 24 62  1  0
 24 63  1  0
 26 64  1  0
 28 65  1  6
 30 66  1  6
 32 67  1  1
 33 68  1  0
 33 69  1  0
 35 70  1  1
 37 71  1  1
 38 72  1  1
 39 73  1  0
 40 74  1  1
 41 75  1  0
 43 76  1  0
 44 77  1  0
 45 78  1  0
M  END
$$$$
