
     RDKit          3D

 71 73  0  0  0  0  0  0  0  0999 V2000
    0.4102   -4.5175    0.7586 C   0  0  0  0  0  0  0  0  0  0  0  0
    0.3714   -3.5575   -0.4404 C   0  0  0  0  0  0  0  0  0  0  0  0
    0.2297   -4.3586   -1.7414 C   0  0  0  0  0  0  0  0  0  0  0  0
   -0.7820   -2.5266   -0.3282 C   0  0  0  0  0  0  0  0  0  0  0  0
   -0.6294   -1.5196    0.8388 C   0  0  2  0  0  0  0  0  0  0  0  0
   -1.8202   -0.6519    0.9609 N   0  0  0  0  0  0  0  0  0  0  0  0
   -1.8596    0.7425   -0.1328 P   0  0  0  0  0  5  0  0  0  0  0  0
   -0.7284    1.8990    0.3698 O   0  0  0  0  0  0  0  0  0  0  0  0
   -1.5377    0.3220   -1.5479 O   0  0  0  0  0  0  0  0  0  0  0  0
   -3.4186    1.4418   -0.1424 O   0  0  0  0  0  0  0  0  0  0  0  0
   -3.7835    1.8272    1.1705 C   0  0  2  0  0  0  0  0  0  0  0  0
   -4.1983    0.7117    1.9476 O   0  0  0  0  0  0  0  0  0  0  0  0
   -5.3129    0.0507    1.3688 C   0  0  1  0  0  0  0  0  0  0  0  0
   -5.6067   -1.2002    2.1985 C   0  0  0  0  0  0  0  0  0  0  0  0
   -6.5438    0.9831    1.3283 C   0  0  2  0  0  0  0  0  0  0  0  0
   -7.6120    0.3257    0.6947 O   0  0  0  0  0  0  0  0  0  0  0  0
   -6.1937    2.2652    0.5547 C   0  0  1  0  0  0  0  0  0  0  0  0
   -7.2564    3.1784    0.6498 O   0  0  0  0  0  0  0  0  0  0  0  0
   -4.8970    2.8880    1.1103 C   0  0  1  0  0  0  0  0  0  0  0  0
   -5.1136    3.3990    2.4022 O   0  0  0  0  0  0  0  0  0  0  0  0
    0.6761   -0.7447    0.8594 C   0  0  0  0  0  0  0  0  0  0  0  0
    1.1887   -0.4618    1.9765 O   0  0  0  0  0  0  0  0  0  0  0  0
    1.3080   -0.2942   -0.3521 N   0  0  0  0  0  0  0  0  0  0  0  0
    2.5919    0.4116   -0.3520 C   0  0  1  0  0  0  0  0  0  0  0  0
    3.7338   -0.6010   -0.5365 C   0  0  0  0  0  0  0  0  0  0  0  0
    5.0787    0.0446   -0.3601 C   0  0  0  0  0  0  0  0  0  0  0  0
    5.6995    0.3366    0.8508 C   0  0  0  0  0  0  0  0  0  0  0  0
    6.8638    0.9913    0.6389 N   0  0  0  0  0  0  0  0  0  0  0  0
    6.9776    1.1252   -0.6939 C   0  0  0  0  0  0  0  0  0  0  0  0
    8.0061    1.7542   -1.3943 C   0  0  0  0  0  0  0  0  0  0  0  0
    7.9150    1.7984   -2.7974 C   0  0  0  0  0  0  0  0  0  0  0  0
    6.8096    1.2220   -3.4614 C   0  0  0  0  0  0  0  0  0  0  0  0
    5.7854    0.5950   -2.7287 C   0  0  0  0  0  0  0  0  0  0  0  0
    5.9048    0.5638   -1.3386 C   0  0  0  0  0  0  0  0  0  0  0  0
    2.6025    1.4542   -1.4370 C   0  0  0  0  0  0  0  0  0  0  0  0
    2.9761    2.7600   -1.1351 O   0  0  0  0  0  0  0  0  0  0  0  0
    2.3034    1.1466   -2.6226 O   0  0  0  0  0  0  0  0  0  0  0  0
    0.7026   -3.9789    1.6832 H   0  0  0  0  0  0  0  0  0  0  0  0
    1.1688   -5.3119    0.5920 H   0  0  0  0  0  0  0  0  0  0  0  0
   -0.5800   -4.9977    0.9110 H   0  0  0  0  0  0  0  0  0  0  0  0
    1.3452   -3.0245   -0.4885 H   0  0  0  0  0  0  0  0  0  0  0  0
    0.2531   -3.6759   -2.6177 H   0  0  0  0  0  0  0  0  0  0  0  0
   -0.7272   -4.9237   -1.7511 H   0  0  0  0  0  0  0  0  0  0  0  0
    1.0717   -5.0757   -1.8470 H   0  0  0  0  0  0  0  0  0  0  0  0
   -0.8708   -1.9855   -1.2888 H   0  0  0  0  0  0  0  0  0  0  0  0
   -1.7420   -3.0735   -0.1959 H   0  0  0  0  0  0  0  0  0  0  0  0
   -0.6227   -2.1457    1.7578 H   0  0  0  0  0  0  0  0  0  0  0  0
   -1.8303   -0.2655    1.9329 H   0  0  0  0  0  0  0  0  0  0  0  0
   -0.8251    2.6445   -0.2749 H   0  0  0  0  0  0  0  0  0  0  0  0
   -2.9284    2.3151    1.6933 H   0  0  0  0  0  0  0  0  0  0  0  0
   -5.0716   -0.2978    0.3380 H   0  0  0  0  0  0  0  0  0  0  0  0
   -5.8727   -0.9220    3.2408 H   0  0  0  0  0  0  0  0  0  0  0  0
   -6.4420   -1.7797    1.7512 H   0  0  0  0  0  0  0  0  0  0  0  0
   -4.7068   -1.8511    2.2240 H   0  0  0  0  0  0  0  0  0  0  0  0
   -6.8244    1.2494    2.3758 H   0  0  0  0  0  0  0  0  0  0  0  0
   -8.4440    0.7860    0.9804 H   0  0  0  0  0  0  0  0  0  0  0  0
   -6.0346    1.9955   -0.5167 H   0  0  0  0  0  0  0  0  0  0  0  0
   -7.1009    3.8706   -0.0448 H   0  0  0  0  0  0  0  0  0  0  0  0
   -4.5624    3.7071    0.4302 H   0  0  0  0  0  0  0  0  0  0  0  0
   -5.5176    4.2993    2.2939 H   0  0  0  0  0  0  0  0  0  0  0  0
    0.9240   -0.6053   -1.2710 H   0  0  0  0  0  0  0  0  0  0  0  0
    2.7287    0.9345    0.6207 H   0  0  0  0  0  0  0  0  0  0  0  0
    3.6309   -1.4072    0.2221 H   0  0  0  0  0  0  0  0  0  0  0  0
    3.6662   -1.0820   -1.5362 H   0  0  0  0  0  0  0  0  0  0  0  0
    5.3119    0.0957    1.8321 H   0  0  0  0  0  0  0  0  0  0  0  0
    7.5286    1.3355    1.3668 H   0  0  0  0  0  0  0  0  0  0  0  0
    8.8467    2.1976   -0.8764 H   0  0  0  0  0  0  0  0  0  0  0  0
    8.6962    2.2794   -3.3716 H   0  0  0  0  0  0  0  0  0  0  0  0
    6.7492    1.2638   -4.5411 H   0  0  0  0  0  0  0  0  0  0  0  0
    4.9363    0.1536   -3.2331 H   0  0  0  0  0  0  0  0  0  0  0  0
    3.0049    3.4716   -1.8553 H   0  0  0  0  0  0  0  0  0  0  0  0
  1  2  1  0
  2  3  1  0
  2  4  1  0
  4  5  1  0
  5  6  1  0
  6  7  1  0
  7  8  1  0
  7  9  2  0
  7 10  1  0
 10 11  1  0
 11 12  1  0
 12 13  1  0
 13 14  1  0
 13 15  1  0
 15 16  1  0
 15 17  1  0
 17 18  1  0
 17 19  1  0
 19 20  1  0
  5 21  1  0
 21 22  2  0
 21 23  1  0
 23 24  1  0
 24 25  1  0
 25 26  1  0
 26 27  2  0
 27 28  1  0
 28 29  1  0
 29 30  2  0
 30 31  1  0
 31 32  2  0
 32 33  1  0
 33 34  2  0
 24 35  1  0
 35 36  1  0
 35 37  2  0
 19 11  1  0
 34 26  1  0
 34 29  1  0
  1 38  1  0
  1 39  1  0
  1 40  1  0
  2 41  1  0
  3 42  1  0
  3 43  1  0
  3 44  1  0
  4 45  1  0
  4 46  1  0
  5 47  1  1
  6 48  1  0
  8 49  1  0
 11 50  1  1
 13 51  1  6
 14 52  1  0
 14 53  1  0
 14 54  1  0
 15 55  1  1
 16 56  1  0
 17 57  1  6
 18 58  1  0
 19 59  1  6
 20 60  1  0
 23 61  1  0
 24 62  1  1
 25 63  1  0
 25 64  1  0
 27 65  1  0
 28 66  1  0
 30 67  1  0
 31 68  1  0
 32 69  1  0
 33 70  1  0
 36 71  1  0
M  END
$$$$
