
     RDKit          3D

 31 33  0  0  0  0  0  0  0  0999 V2000
    1.3845   -1.1589   -0.6411 C   0  0  0  0  0  0  0  0  0  0  0  0
    1.8663   -0.4656    0.6346 C   0  0  0  0  0  0  0  0  0  0  0  0
    3.0541    0.3365    0.3537 N   0  0  0  0  0  0  0  0  0  0  0  0
    4.3308   -0.0897    0.3952 C   0  0  0  0  0  0  0  0  0  0  0  0
    5.1729    0.9300    0.0000 C   0  0  0  0  0  0  0  0  0  0  0  0
    4.3683    2.0125   -0.3027 C   0  0  0  0  0  0  0  0  0  0  0  0
    3.0666    1.6112   -0.0804 C   0  0  0  0  0  0  0  0  0  0  0  0
    0.2070   -1.9242   -0.3850 O   0  0  0  0  0  0  0  0  0  0  0  0
   -1.0841   -1.3982   -0.2145 C   0  0  0  0  0  0  0  0  0  0  0  0
   -1.3752   -0.0205   -0.3834 C   0  0  0  0  0  0  0  0  0  0  0  0
   -2.6896    0.3981   -0.1913 C   0  0  0  0  0  0  0  0  0  0  0  0
   -3.6868   -0.4753    0.1471 C   0  0  0  0  0  0  0  0  0  0  0  0
   -4.8603    0.1653    0.2745 N   0  0  0  0  0  0  0  0  0  0  0  0
   -4.6008    1.4668    0.0121 C   0  0  0  0  0  0  0  0  0  0  0  0
   -3.2539    1.6518   -0.2837 C   0  0  0  0  0  0  0  0  0  0  0  0
   -3.4412   -1.8348    0.3178 C   0  0  0  0  0  0  0  0  0  0  0  0
   -2.1245   -2.2929    0.1323 C   0  0  0  0  0  0  0  0  0  0  0  0
    1.2060   -0.4253   -1.4559 H   0  0  0  0  0  0  0  0  0  0  0  0
    2.1797   -1.8519   -0.9888 H   0  0  0  0  0  0  0  0  0  0  0  0
    1.0674    0.1871    1.0459 H   0  0  0  0  0  0  0  0  0  0  0  0
    2.1034   -1.2318    1.4047 H   0  0  0  0  0  0  0  0  0  0  0  0
    4.6362   -1.0870    0.6851 H   0  0  0  0  0  0  0  0  0  0  0  0
    6.2514    0.8866   -0.0708 H   0  0  0  0  0  0  0  0  0  0  0  0
    4.6945    2.9812   -0.6567 H   0  0  0  0  0  0  0  0  0  0  0  0
    2.1817    2.2145   -0.2384 H   0  0  0  0  0  0  0  0  0  0  0  0
   -0.6181    0.7020   -0.6538 H   0  0  0  0  0  0  0  0  0  0  0  0
   -5.7847   -0.2514    0.5241 H   0  0  0  0  0  0  0  0  0  0  0  0
   -5.3499    2.2472    0.0330 H   0  0  0  0  0  0  0  0  0  0  0  0
   -2.7583    2.5809   -0.5325 H   0  0  0  0  0  0  0  0  0  0  0  0
   -4.2368   -2.5185    0.5844 H   0  0  0  0  0  0  0  0  0  0  0  0
   -1.9068   -3.3457    0.2592 H   0  0  0  0  0  0  0  0  0  0  0  0
  1  2  1  0
  2  3  1  0
  3  4  1  0
  4  5  2  0
  5  6  1  0
  6  7  2  0
  1  8  1  0
  8  9  1  0
  9 10  2  0
 10 11  1  0
 11 12  2  0
 12 13  1  0
 13 14  1  0
 14 15  2  0
 12 16  1  0
 16 17  2  0
  7  3  1  0
 17  9  1  0
 15 11  1  0
  1 18  1  0
  1 19  1  0
  2 20  1  0
  2 21  1  0
  4 22  1  0
  5 23  1  0
  6 24  1  0
  7 25  1  0
 10 26  1  0
 13 27  1  0
 14 28  1  0
 15 29  1  0
 16 30  1  0
 17 31  1  0
M  END
$$$$
