
     RDKit          3D

 52 54  0  0  0  0  0  0  0  0999 V2000
    4.6366   -0.3421    1.6085 C   0  0  0  0  0  0  0  0  0  0  0  0
    4.4616   -0.5966    0.1154 C   0  0  0  0  0  0  0  0  0  0  0  0
    3.0431   -0.6552   -0.2291 N   0  0  0  0  0  0  0  0  0  0  0  0
    2.2128    0.5167   -0.2532 C   0  0  0  0  0  0  0  0  0  0  0  0
    2.7475    1.6585   -0.2308 O   0  0  0  0  0  0  0  0  0  0  0  0
    0.7764    0.4187   -0.2890 N   0  0  0  0  0  0  0  0  0  0  0  0
   -0.0216    1.5552   -0.4129 N   0  0  0  0  0  0  0  0  0  0  0  0
   -1.2720    1.2469   -0.4190 C   0  0  0  0  0  0  0  0  0  0  0  0
   -1.4947   -0.2299   -0.2870 C   0  0  0  0  0  0  0  0  0  0  0  0
   -0.0485   -0.7940   -0.1928 C   0  0  2  0  0  0  0  0  0  0  0  0
    0.1957   -1.5309    1.1722 C   0  0  0  0  0  0  0  0  0  0  0  0
    0.4937   -0.6546    2.4120 C   0  0  0  0  0  0  0  0  0  0  0  0
   -0.7283    0.0929    2.9566 C   0  0  0  0  0  0  0  0  0  0  0  0
   -0.4140    0.6909    4.2507 N   0  0  0  0  0  0  0  0  0  0  0  0
    0.1862   -1.7159   -1.4019 C   0  0  0  0  0  0  0  0  0  0  0  0
    0.6239   -1.1873   -2.6373 C   0  0  0  0  0  0  0  0  0  0  0  0
    0.7874   -2.0141   -3.7520 C   0  0  0  0  0  0  0  0  0  0  0  0
    0.4891   -3.3737   -3.6661 C   0  0  0  0  0  0  0  0  0  0  0  0
    0.0115   -3.9069   -2.4690 C   0  0  0  0  0  0  0  0  0  0  0  0
   -0.1542   -3.0859   -1.3499 C   0  0  0  0  0  0  0  0  0  0  0  0
   -2.3518    2.2630   -0.5270 C   0  0  0  0  0  0  0  0  0  0  0  0
   -2.0563    3.6409   -0.6346 C   0  0  0  0  0  0  0  0  0  0  0  0
   -0.7749    4.0878   -0.6456 F   0  0  0  0  0  0  0  0  0  0  0  0
   -3.0898    4.5786   -0.7322 C   0  0  0  0  0  0  0  0  0  0  0  0
   -4.4218    4.1628   -0.7239 C   0  0  0  0  0  0  0  0  0  0  0  0
   -4.7279    2.8055   -0.6180 C   0  0  0  0  0  0  0  0  0  0  0  0
   -6.0226    2.4028   -0.6100 F   0  0  0  0  0  0  0  0  0  0  0  0
   -3.7022    1.8606   -0.5201 C   0  0  0  0  0  0  0  0  0  0  0  0
    5.7170   -0.3494    1.8641 H   0  0  0  0  0  0  0  0  0  0  0  0
    4.2119    0.6454    1.8864 H   0  0  0  0  0  0  0  0  0  0  0  0
    4.1235   -1.1359    2.1922 H   0  0  0  0  0  0  0  0  0  0  0  0
    4.9652    0.2013   -0.4719 H   0  0  0  0  0  0  0  0  0  0  0  0
    4.9425   -1.5657   -0.1400 H   0  0  0  0  0  0  0  0  0  0  0  0
    2.6523   -1.5816   -0.5019 H   0  0  0  0  0  0  0  0  0  0  0  0
   -2.1072   -0.4512    0.6111 H   0  0  0  0  0  0  0  0  0  0  0  0
   -2.0429   -0.5972   -1.1830 H   0  0  0  0  0  0  0  0  0  0  0  0
    1.0659   -2.2115    1.0569 H   0  0  0  0  0  0  0  0  0  0  0  0
   -0.6696   -2.1879    1.4082 H   0  0  0  0  0  0  0  0  0  0  0  0
    1.3140    0.0642    2.2144 H   0  0  0  0  0  0  0  0  0  0  0  0
    0.8628   -1.3350    3.2109 H   0  0  0  0  0  0  0  0  0  0  0  0
   -1.0093    0.9045    2.2566 H   0  0  0  0  0  0  0  0  0  0  0  0
   -1.5894   -0.6038    3.0668 H   0  0  0  0  0  0  0  0  0  0  0  0
   -0.3331   -0.0775    4.9561 H   0  0  0  0  0  0  0  0  0  0  0  0
   -1.2338    1.2718    4.5404 H   0  0  0  0  0  0  0  0  0  0  0  0
    0.8363   -0.1324   -2.7489 H   0  0  0  0  0  0  0  0  0  0  0  0
    1.1370   -1.5967   -4.6875 H   0  0  0  0  0  0  0  0  0  0  0  0
    0.6132   -4.0113   -4.5318 H   0  0  0  0  0  0  0  0  0  0  0  0
   -0.2410   -4.9578   -2.4099 H   0  0  0  0  0  0  0  0  0  0  0  0
   -0.5554   -3.5295   -0.4500 H   0  0  0  0  0  0  0  0  0  0  0  0
   -2.8572    5.6326   -0.8143 H   0  0  0  0  0  0  0  0  0  0  0  0
   -5.2165    4.8938   -0.7996 H   0  0  0  0  0  0  0  0  0  0  0  0
   -3.9714    0.8158   -0.4391 H   0  0  0  0  0  0  0  0  0  0  0  0
  1  2  1  0
  2  3  1  0
  3  4  1  0
  4  5  2  0
  4  6  1  0
  6  7  1  0
  7  8  2  0
  8  9  1  0
  9 10  1  0
 10 11  1  1
 11 12  1  0
 12 13  1  0
 13 14  1  0
 10 15  1  0
 15 16  2  0
 16 17  1  0
 17 18  2  0
 18 19  1  0
 19 20  2  0
  8 21  1  0
 21 22  2  0
 22 23  1  0
 22 24  1  0
 24 25  2  0
 25 26  1  0
 26 27  1  0
 26 28  2  0
 10  6  1  0
 20 15  1  0
 28 21  1  0
  1 29  1  0
  1 30  1  0
  1 31  1  0
  2 32  1  0
  2 33  1  0
  3 34  1  0
  9 35  1  0
  9 36  1  0
 11 37  1  0
 11 38  1  0
 12 39  1  0
 12 40  1  0
 13 41  1  0
 13 42  1  0
 14 43  1  0
 14 44  1  0
 16 45  1  0
 17 46  1  0
 18 47  1  0
 19 48  1  0
 20 49  1  0
 24 50  1  0
 25 51  1  0
 28 52  1  0
M  END
$$$$
