
     RDKit          3D

 35 37  0  0  0  0  0  0  0  0999 V2000
   -1.3730   -0.7076    1.5509 C   0  0  1  0  0  0  0  0  0  0  0  0
   -0.9545   -2.1765    1.6510 C   0  0  0  0  0  0  0  0  0  0  0  0
   -0.2214    0.1059    1.6414 O   0  0  0  0  0  0  0  0  0  0  0  0
   -0.2085    0.9517    0.5160 C   0  0  2  0  0  0  0  0  0  0  0  0
   -1.0836    0.3404   -0.5593 C   0  0  0  0  0  0  0  0  0  0  0  0
   -2.1141   -0.4128    0.2380 C   0  0  2  0  0  0  0  0  0  0  0  0
   -3.2201    0.4288    0.5123 O   0  0  0  0  0  0  0  0  0  0  0  0
   -4.4970    0.0839   -0.5688 P   0  0  0  0  0  5  0  0  0  0  0  0
   -5.6963    1.2656   -0.4027 O   0  0  0  0  0  0  0  0  0  0  0  0
   -3.9385    0.0741   -2.1675 O   0  0  0  0  0  0  0  0  0  0  0  0
   -5.0899   -1.2670   -0.2379 O   0  0  0  0  0  0  0  0  0  0  0  0
    1.1607    1.1368    0.0326 N   0  0  0  0  0  0  0  0  0  0  0  0
    1.6960    2.2642   -0.5028 C   0  0  0  0  0  0  0  0  0  0  0  0
    2.9737    2.0992   -0.9448 N   0  0  0  0  0  0  0  0  0  0  0  0
    3.2177    0.8038   -0.6706 C   0  0  0  0  0  0  0  0  0  0  0  0
    2.1371    0.2285   -0.0958 C   0  0  0  0  0  0  0  0  0  0  0  0
    2.1044   -1.0807    0.2519 N   0  0  0  0  0  0  0  0  0  0  0  0
    3.2198   -1.8348    0.0151 C   0  0  0  0  0  0  0  0  0  0  0  0
    4.3301   -1.2729   -0.5631 N   0  0  0  0  0  0  0  0  0  0  0  0
    4.3571    0.0466   -0.9186 C   0  0  0  0  0  0  0  0  0  0  0  0
    5.5184    0.6116   -1.5272 N   0  0  0  0  0  0  0  0  0  0  0  0
   -2.0315   -0.4853    2.4200 H   0  0  0  0  0  0  0  0  0  0  0  0
   -1.8526   -2.8303    1.6573 H   0  0  0  0  0  0  0  0  0  0  0  0
   -0.3079   -2.4563    0.7923 H   0  0  0  0  0  0  0  0  0  0  0  0
   -0.3904   -2.3442    2.5929 H   0  0  0  0  0  0  0  0  0  0  0  0
   -0.6302    1.9377    0.8171 H   0  0  0  0  0  0  0  0  0  0  0  0
   -0.5009   -0.3745   -1.1823 H   0  0  0  0  0  0  0  0  0  0  0  0
   -1.5290    1.1218   -1.2120 H   0  0  0  0  0  0  0  0  0  0  0  0
   -2.3904   -1.3637   -0.2807 H   0  0  0  0  0  0  0  0  0  0  0  0
   -5.2201    2.1261   -0.5194 H   0  0  0  0  0  0  0  0  0  0  0  0
   -3.7548    1.0242   -2.3777 H   0  0  0  0  0  0  0  0  0  0  0  0
    1.1592    3.2006   -0.5842 H   0  0  0  0  0  0  0  0  0  0  0  0
    3.2261   -2.8821    0.2837 H   0  0  0  0  0  0  0  0  0  0  0  0
    5.5454    1.6186   -1.8025 H   0  0  0  0  0  0  0  0  0  0  0  0
    6.3591    0.0183   -1.7037 H   0  0  0  0  0  0  0  0  0  0  0  0
  1  2  1  0
  1  3  1  0
  3  4  1  0
  4  5  1  0
  5  6  1  0
  6  7  1  0
  7  8  1  0
  8  9  1  0
  8 10  1  0
  8 11  2  0
  4 12  1  0
 12 13  1  0
 13 14  2  0
 14 15  1  0
 15 16  2  0
 16 17  1  0
 17 18  2  0
 18 19  1  0
 19 20  2  0
 20 21  1  0
  6  1  1  0
 16 12  1  0
 20 15  1  0
  1 22  1  1
  2 23  1  0
  2 24  1  0
  2 25  1  0
  4 26  1  1
  5 27  1  0
  5 28  1  0
  6 29  1  6
  9 30  1  0
 10 31  1  0
 13 32  1  0
 18 33  1  0
 21 34  1  0
 21 35  1  0
M  END
$$$$
