
     RDKit          3D

 49 51  0  0  0  0  0  0  0  0999 V2000
    5.9873    2.3671   -0.7397 F   0  0  0  0  0  0  0  0  0  0  0  0
    6.7122    2.8127   -1.8288 C   0  0  0  0  0  0  0  0  0  0  0  0
    6.2322    2.1426   -3.1139 C   0  0  0  0  0  0  0  0  0  0  0  0
    6.5039    0.7403   -3.0918 O   0  0  0  0  0  0  0  0  0  0  0  0
    5.7352   -0.2408   -2.4429 C   0  0  0  0  0  0  0  0  0  0  0  0
    6.2366   -1.5467   -2.4047 C   0  0  0  0  0  0  0  0  0  0  0  0
    5.5128   -2.5676   -1.7857 C   0  0  0  0  0  0  0  0  0  0  0  0
    4.2801   -2.2925   -1.1908 C   0  0  0  0  0  0  0  0  0  0  0  0
    3.7651   -0.9848   -1.2014 C   0  0  0  0  0  0  0  0  0  0  0  0
    2.4853   -0.6800   -0.6212 N   0  0  0  0  0  0  0  0  0  0  0  0
    1.9683   -1.3067    0.5635 C   0  0  0  0  0  0  0  0  0  0  0  0
    2.7101   -2.0231    1.2887 O   0  0  0  0  0  0  0  0  0  0  0  0
    0.5337   -1.1076    0.9495 C   0  0  0  0  0  0  0  0  0  0  0  0
   -0.3734   -2.0137    0.1154 C   0  0  0  0  0  0  0  0  0  0  0  0
   -1.8085   -1.8088    0.4963 C   0  0  0  0  0  0  0  0  0  0  0  0
   -2.3697   -2.6384    1.2621 O   0  0  0  0  0  0  0  0  0  0  0  0
   -2.5307   -0.6766   -0.0134 N   0  0  0  0  0  0  0  0  0  0  0  0
   -3.8192   -0.2595    0.4693 C   0  0  0  0  0  0  0  0  0  0  0  0
   -4.7320    0.3150   -0.4234 C   0  0  0  0  0  0  0  0  0  0  0  0
   -5.9823    0.7485    0.0205 C   0  0  0  0  0  0  0  0  0  0  0  0
   -6.3381    0.6294    1.3741 C   0  0  0  0  0  0  0  0  0  0  0  0
   -7.6658    1.0895    1.8493 C   0  0  0  0  0  0  0  0  0  0  0  0
   -8.4987    1.5835    1.0422 O   0  0  0  0  0  0  0  0  0  0  0  0
   -8.0130    0.9760    3.2338 N   0  0  0  0  0  0  0  0  0  0  0  0
   -7.0924    0.4223    4.1770 C   0  0  0  0  0  0  0  0  0  0  0  0
   -7.4147    0.3323    5.3918 O   0  0  0  0  0  0  0  0  0  0  0  0
   -5.7733   -0.0398    3.7224 C   0  0  0  0  0  0  0  0  0  0  0  0
   -4.9608   -0.5292    4.5536 O   0  0  0  0  0  0  0  0  0  0  0  0
   -5.4156    0.0746    2.2889 C   0  0  0  0  0  0  0  0  0  0  0  0
   -4.1588   -0.3588    1.8294 C   0  0  0  0  0  0  0  0  0  0  0  0
    4.4867    0.0316   -1.8475 C   0  0  0  0  0  0  0  0  0  0  0  0
    7.7879    2.5895   -1.6667 H   0  0  0  0  0  0  0  0  0  0  0  0
    6.5864    3.9124   -1.9160 H   0  0  0  0  0  0  0  0  0  0  0  0
    5.1575    2.3467   -3.3006 H   0  0  0  0  0  0  0  0  0  0  0  0
    6.7959    2.5863   -3.9614 H   0  0  0  0  0  0  0  0  0  0  0  0
    7.1910   -1.7723   -2.8636 H   0  0  0  0  0  0  0  0  0  0  0  0
    5.9043   -3.5766   -1.7750 H   0  0  0  0  0  0  0  0  0  0  0  0
    3.7204   -3.1062   -0.7495 H   0  0  0  0  0  0  0  0  0  0  0  0
    1.9288    0.0989   -1.0413 H   0  0  0  0  0  0  0  0  0  0  0  0
    0.2568   -0.0426    0.7898 H   0  0  0  0  0  0  0  0  0  0  0  0
    0.4021   -1.3377    2.0300 H   0  0  0  0  0  0  0  0  0  0  0  0
   -0.0921   -3.0778    0.2779 H   0  0  0  0  0  0  0  0  0  0  0  0
   -0.2461   -1.7869   -0.9657 H   0  0  0  0  0  0  0  0  0  0  0  0
   -2.1285   -0.1733   -0.8366 H   0  0  0  0  0  0  0  0  0  0  0  0
   -4.4765    0.4170   -1.4708 H   0  0  0  0  0  0  0  0  0  0  0  0
   -6.6701    1.1788   -0.6966 H   0  0  0  0  0  0  0  0  0  0  0  0
   -8.9506    1.3029    3.5594 H   0  0  0  0  0  0  0  0  0  0  0  0
   -3.4363   -0.7483    2.5344 H   0  0  0  0  0  0  0  0  0  0  0  0
    4.0662    1.0263   -1.8702 H   0  0  0  0  0  0  0  0  0  0  0  0
  1  2  1  0
  2  3  1  0
  3  4  1  0
  4  5  1  0
  5  6  2  0
  6  7  1  0
  7  8  2  0
  8  9  1  0
  9 10  1  0
 10 11  1  0
 11 12  2  0
 11 13  1  0
 13 14  1  0
 14 15  1  0
 15 16  2  0
 15 17  1  0
 17 18  1  0
 18 19  2  0
 19 20  1  0
 20 21  2  0
 21 22  1  0
 22 23  2  0
 22 24  1  0
 24 25  1  0
 25 26  2  0
 25 27  1  0
 27 28  2  0
 27 29  1  0
 29 30  2  0
  9 31  2  0
 31  5  1  0
 30 18  1  0
 29 21  1  0
  2 32  1  0
  2 33  1  0
  3 34  1  0
  3 35  1  0
  6 36  1  0
  7 37  1  0
  8 38  1  0
 10 39  1  0
 13 40  1  0
 13 41  1  0
 14 42  1  0
 14 43  1  0
 17 44  1  0
 19 45  1  0
 20 46  1  0
 24 47  1  0
 30 48  1  0
 31 49  1  0
M  END
$$$$
