
     RDKit          3D

 85 87  0  0  0  0  0  0  0  0999 V2000
  -11.0361    1.1918    3.3421 N   0  0  0  0  0  0  0  0  0  0  0  0
  -10.6673    0.3246    2.2698 C   0  0  0  0  0  0  0  0  0  0  0  0
   -9.3394    0.1340    1.9050 C   0  0  0  0  0  0  0  0  0  0  0  0
   -8.2234    0.6917    2.4115 N   0  0  0  0  0  0  0  0  0  0  0  0
   -7.2410    0.1530    1.6373 C   0  0  0  0  0  0  0  0  0  0  0  0
   -7.7079   -0.7104    0.6968 N   0  0  0  0  0  0  0  0  0  0  0  0
   -6.9548   -1.3821   -0.3649 C   0  0  2  0  0  0  0  0  0  0  0  0
   -5.6968   -1.7897    0.1345 O   0  0  0  0  0  0  0  0  0  0  0  0
   -4.7008   -1.2274   -0.6902 C   0  0  2  0  0  0  0  0  0  0  0  0
   -3.4872   -0.8334    0.1572 C   0  0  0  0  0  0  0  0  0  0  0  0
   -2.4911   -0.2934   -0.6790 O   0  0  0  0  0  0  0  0  0  0  0  0
   -1.2243    0.3047    0.2948 P   0  0  0  0  0  5  0  0  0  0  0  0
   -0.7261   -0.8650    1.4169 O   0  0  0  0  0  0  0  0  0  0  0  0
   -1.7068    1.5313    1.0372 O   0  0  0  0  0  0  0  0  0  0  0  0
    0.0805    0.7665   -0.6957 O   0  0  0  0  0  0  0  0  0  0  0  0
    0.6980   -0.6400   -1.4334 P   0  0  0  0  0  5  0  0  0  0  0  0
    1.8748   -0.1802   -2.5604 O   0  0  0  0  0  0  0  0  0  0  0  0
   -0.3977   -1.3808   -2.1678 O   0  0  0  0  0  0  0  0  0  0  0  0
    1.3988   -1.6788   -0.2753 O   0  0  0  0  0  0  0  0  0  0  0  0
    2.4385   -0.9825    0.3763 C   0  0  0  0  0  0  0  0  0  0  0  0
    3.1297   -1.8932    1.4283 C   0  0  0  0  0  0  0  0  0  0  0  0
    3.7532   -3.1182    0.7185 C   0  0  0  0  0  0  0  0  0  0  0  0
    2.0661   -2.3940    2.4341 C   0  0  0  0  0  0  0  0  0  0  0  0
    4.2206   -1.0820    2.2099 C   0  0  1  0  0  0  0  0  0  0  0  0
    4.8486   -1.8931    3.1744 O   0  0  0  0  0  0  0  0  0  0  0  0
    5.2836   -0.5008    1.3090 C   0  0  0  0  0  0  0  0  0  0  0  0
    6.2728   -1.2078    0.9720 O   0  0  0  0  0  0  0  0  0  0  0  0
    5.1562    0.8413    0.8149 N   0  0  0  0  0  0  0  0  0  0  0  0
    6.1290    1.4375   -0.0976 C   0  0  0  0  0  0  0  0  0  0  0  0
    7.3991    1.8318    0.6584 C   0  0  0  0  0  0  0  0  0  0  0  0
    8.3918    2.4574   -0.2733 C   0  0  0  0  0  0  0  0  0  0  0  0
    8.4711    3.7139   -0.3424 O   0  0  0  0  0  0  0  0  0  0  0  0
    9.2189    1.6274   -1.1019 N   0  0  0  0  0  0  0  0  0  0  0  0
   10.2709    2.1593   -1.9670 C   0  0  0  0  0  0  0  0  0  0  0  0
   11.6544    1.8579   -1.3898 C   0  0  0  0  0  0  0  0  0  0  0  0
   11.9609    2.8110    0.1397 S   0  0  0  0  0  0  0  0  0  0  0  0
   11.3037    1.2641    1.4553 S   0  0  0  0  0  0  0  0  0  0  0  0
   -5.2980   -0.0342   -1.4294 C   0  0  1  0  0  0  0  0  0  0  0  0
   -4.6744    0.1183   -2.6911 O   0  0  0  0  0  0  0  0  0  0  0  0
   -4.6606    1.7666   -3.1340 P   0  0  0  0  0  5  0  0  0  0  0  0
   -6.2253    2.4138   -3.0663 O   0  0  0  0  0  0  0  0  0  0  0  0
   -4.0827    1.8958   -4.7185 O   0  0  0  0  0  0  0  0  0  0  0  0
   -3.7423    2.5371   -2.2103 O   0  0  0  0  0  0  0  0  0  0  0  0
   -6.7511   -0.4361   -1.5545 C   0  0  1  0  0  0  0  0  0  0  0  0
   -7.0240   -1.0818   -2.7776 O   0  0  0  0  0  0  0  0  0  0  0  0
   -9.0336   -0.6928    0.8794 C   0  0  0  0  0  0  0  0  0  0  0  0
   -9.9771   -1.3539    0.1660 N   0  0  0  0  0  0  0  0  0  0  0  0
  -11.2865   -1.1765    0.5178 C   0  0  0  0  0  0  0  0  0  0  0  0
  -11.6218   -0.3466    1.5579 N   0  0  0  0  0  0  0  0  0  0  0  0
  -10.3122    1.7089    3.8890 H   0  0  0  0  0  0  0  0  0  0  0  0
  -12.0419    1.3180    3.5923 H   0  0  0  0  0  0  0  0  0  0  0  0
   -6.1952    0.4052    1.7528 H   0  0  0  0  0  0  0  0  0  0  0  0
   -7.5144   -2.2897   -0.6837 H   0  0  0  0  0  0  0  0  0  0  0  0
   -4.3803   -2.0039   -1.4223 H   0  0  0  0  0  0  0  0  0  0  0  0
   -3.8149   -0.1005    0.9304 H   0  0  0  0  0  0  0  0  0  0  0  0
   -3.1070   -1.7504    0.6604 H   0  0  0  0  0  0  0  0  0  0  0  0
   -1.3290   -0.7552    2.1949 H   0  0  0  0  0  0  0  0  0  0  0  0
    2.2559   -1.0329   -2.8904 H   0  0  0  0  0  0  0  0  0  0  0  0
    2.0350   -0.0828    0.8954 H   0  0  0  0  0  0  0  0  0  0  0  0
    3.1979   -0.6539   -0.3683 H   0  0  0  0  0  0  0  0  0  0  0  0
    4.4565   -2.8018   -0.0801 H   0  0  0  0  0  0  0  0  0  0  0  0
    4.3035   -3.7577    1.4411 H   0  0  0  0  0  0  0  0  0  0  0  0
    2.9651   -3.7418    0.2443 H   0  0  0  0  0  0  0  0  0  0  0  0
    2.5169   -3.0800    3.1824 H   0  0  0  0  0  0  0  0  0  0  0  0
    1.6058   -1.5391    2.9749 H   0  0  0  0  0  0  0  0  0  0  0  0
    1.2578   -2.9554    1.9186 H   0  0  0  0  0  0  0  0  0  0  0  0
    3.7207   -0.2225    2.7195 H   0  0  0  0  0  0  0  0  0  0  0  0
    4.3780   -1.7515    4.0372 H   0  0  0  0  0  0  0  0  0  0  0  0
    4.3015    1.3928    1.0548 H   0  0  0  0  0  0  0  0  0  0  0  0
    6.3657    0.7205   -0.9143 H   0  0  0  0  0  0  0  0  0  0  0  0
    5.6833    2.3462   -0.5590 H   0  0  0  0  0  0  0  0  0  0  0  0
    7.8585    0.9372    1.1299 H   0  0  0  0  0  0  0  0  0  0  0  0
    7.1414    2.5491    1.4681 H   0  0  0  0  0  0  0  0  0  0  0  0
    9.1237    0.5892   -1.0272 H   0  0  0  0  0  0  0  0  0  0  0  0
   10.1867    1.6766   -2.9641 H   0  0  0  0  0  0  0  0  0  0  0  0
   10.1549    3.2539   -2.1197 H   0  0  0  0  0  0  0  0  0  0  0  0
   12.4188    2.1645   -2.1344 H   0  0  0  0  0  0  0  0  0  0  0  0
   11.7769    0.7668   -1.2200 H   0  0  0  0  0  0  0  0  0  0  0  0
   12.5965    0.7145    1.5379 H   0  0  0  0  0  0  0  0  0  0  0  0
   -5.2232    0.8659   -0.7705 H   0  0  0  0  0  0  0  0  0  0  0  0
   -6.3395    2.7217   -2.1319 H   0  0  0  0  0  0  0  0  0  0  0  0
   -4.1618    2.8582   -4.9387 H   0  0  0  0  0  0  0  0  0  0  0  0
   -7.4063    0.4595   -1.4805 H   0  0  0  0  0  0  0  0  0  0  0  0
   -6.4547   -1.8938   -2.8348 H   0  0  0  0  0  0  0  0  0  0  0  0
  -12.0636   -1.6922   -0.0292 H   0  0  0  0  0  0  0  0  0  0  0  0
  1  2  1  0
  2  3  2  0
  3  4  1  0
  4  5  2  0
  5  6  1  0
  6  7  1  0
  7  8  1  0
  8  9  1  0
  9 10  1  0
 10 11  1  0
 11 12  1  0
 12 13  1  0
 12 14  2  0
 12 15  1  0
 15 16  1  0
 16 17  1  0
 16 18  2  0
 16 19  1  0
 19 20  1  0
 20 21  1  0
 21 22  1  0
 21 23  1  0
 21 24  1  0
 24 25  1  0
 24 26  1  0
 26 27  2  0
 26 28  1  0
 28 29  1  0
 29 30  1  0
 30 31  1  0
 31 32  2  0
 31 33  1  0
 33 34  1  0
 34 35  1  0
 35 36  1  0
 36 37  1  0
  9 38  1  0
 38 39  1  0
 39 40  1  0
 40 41  1  0
 40 42  1  0
 40 43  2  0
 38 44  1  0
 44 45  1  0
  6 46  1  0
 46 47  2  0
 47 48  1  0
 48 49  2  0
 49  2  1  0
 46  3  1  0
 44  7  1  0
  1 50  1  0
  1 51  1  0
  5 52  1  0
  7 53  1  6
  9 54  1  6
 10 55  1  0
 10 56  1  0
 13 57  1  0
 17 58  1  0
 20 59  1  0
 20 60  1  0
 22 61  1  0
 22 62  1  0
 22 63  1  0
 23 64  1  0
 23 65  1  0
 23 66  1  0
 24 67  1  1
 25 68  1  0
 28 69  1  0
 29 70  1  0
 29 71  1  0
 30 72  1  0
 30 73  1  0
 33 74  1  0
 34 75  1  0
 34 76  1  0
 35 77  1  0
 35 78  1  0
 37 79  1  0
 38 80  1  1
 41 81  1  0
 42 82  1  0
 44 83  1  1
 45 84  1  0
 48 85  1  0
M  END
$$$$
