
     RDKit          3D

 31 31  0  0  0  0  0  0  0  0999 V2000
   -3.4511    0.9855   -0.5279 C   0  0  0  0  0  0  0  0  0  0  0  0
   -2.3617   -0.1007   -0.5169 C   0  0  0  0  0  0  0  0  0  0  0  0
   -2.9125   -1.4127    0.0497 C   0  0  0  0  0  0  0  0  0  0  0  0
   -1.1006    0.3131    0.2393 C   0  0  0  0  0  0  0  0  0  0  0  0
   -1.2097    1.0707    1.4226 C   0  0  0  0  0  0  0  0  0  0  0  0
   -0.0760    1.4873    2.1124 C   0  0  0  0  0  0  0  0  0  0  0  0
    1.1903    1.1463    1.6512 C   0  0  0  0  0  0  0  0  0  0  0  0
    1.3474    0.3503    0.5048 C   0  0  0  0  0  0  0  0  0  0  0  0
    2.7608   -0.0230    0.0706 C   0  0  0  0  0  0  0  0  0  0  0  0
    3.0803    0.4778   -1.3441 C   0  0  0  0  0  0  0  0  0  0  0  0
    3.0234   -1.5277    0.2114 C   0  0  0  0  0  0  0  0  0  0  0  0
    0.1938   -0.1020   -0.1862 C   0  0  0  0  0  0  0  0  0  0  0  0
    0.3619   -0.9714   -1.2686 O   0  0  0  0  0  0  0  0  0  0  0  0
   -3.0139    1.9665   -0.8124 H   0  0  0  0  0  0  0  0  0  0  0  0
   -4.2319    0.7268   -1.2751 H   0  0  0  0  0  0  0  0  0  0  0  0
   -3.9497    1.0771    0.4598 H   0  0  0  0  0  0  0  0  0  0  0  0
   -2.1185   -0.2553   -1.5876 H   0  0  0  0  0  0  0  0  0  0  0  0
   -3.7988   -1.7406   -0.5344 H   0  0  0  0  0  0  0  0  0  0  0  0
   -3.2101   -1.2840    1.1127 H   0  0  0  0  0  0  0  0  0  0  0  0
   -2.1425   -2.2109   -0.0107 H   0  0  0  0  0  0  0  0  0  0  0  0
   -2.1739    1.3501    1.8224 H   0  0  0  0  0  0  0  0  0  0  0  0
   -0.1798    2.0819    3.0110 H   0  0  0  0  0  0  0  0  0  0  0  0
    2.0530    1.4930    2.2066 H   0  0  0  0  0  0  0  0  0  0  0  0
    3.4908    0.4812    0.7434 H   0  0  0  0  0  0  0  0  0  0  0  0
    4.1626    0.3426   -1.5555 H   0  0  0  0  0  0  0  0  0  0  0  0
    2.8446    1.5603   -1.4275 H   0  0  0  0  0  0  0  0  0  0  0  0
    2.5090   -0.0755   -2.1166 H   0  0  0  0  0  0  0  0  0  0  0  0
    4.1005   -1.7397    0.0410 H   0  0  0  0  0  0  0  0  0  0  0  0
    2.4364   -2.1180   -0.5211 H   0  0  0  0  0  0  0  0  0  0  0  0
    2.7627   -1.8654    1.2372 H   0  0  0  0  0  0  0  0  0  0  0  0
   -0.3867   -1.4836   -1.7129 H   0  0  0  0  0  0  0  0  0  0  0  0
  1  2  1  0
  2  3  1  0
  2  4  1  0
  4  5  2  0
  5  6  1  0
  6  7  2  0
  7  8  1  0
  8  9  1  0
  9 10  1  0
  9 11  1  0
  8 12  2  0
 12 13  1  0
 12  4  1  0
  1 14  1  0
  1 15  1  0
  1 16  1  0
  2 17  1  0
  3 18  1  0
  3 19  1  0
  3 20  1  0
  5 21  1  0
  6 22  1  0
  7 23  1  0
  9 24  1  0
 10 25  1  0
 10 26  1  0
 10 27  1  0
 11 28  1  0
 11 29  1  0
 11 30  1  0
 13 31  1  0
M  END
$$$$
