
     RDKit          3D

 44 45  0  0  0  0  0  0  0  0999 V2000
   -0.9344   -2.4424    0.4960 C   0  0  0  0  0  0  0  0  0  0  0  0
   -1.9971   -1.4234    0.9541 C   0  0  0  0  0  0  0  0  0  0  0  0
   -2.4537   -1.8235    2.3728 C   0  0  0  0  0  0  0  0  0  0  0  0
   -1.4871    0.0607    0.9106 C   0  0  2  0  0  0  0  0  0  0  0  0
   -2.6536    1.0803    1.1126 C   0  0  0  0  0  0  0  0  0  0  0  0
   -3.1859    1.6303   -0.2161 C   0  0  0  0  0  0  0  0  0  0  0  0
   -2.0952    2.4035   -0.9987 C   0  0  1  0  0  0  0  0  0  0  0  0
   -2.1906    3.9135   -0.7443 C   0  0  0  0  0  0  0  0  0  0  0  0
   -0.6696    1.8937   -0.6819 C   0  0  0  0  0  0  0  0  0  0  0  0
   -0.6700    0.3847   -0.3828 C   0  0  1  0  0  0  0  0  0  0  0  0
    0.6757   -0.0663   -0.2149 O   0  0  0  0  0  0  0  0  0  0  0  0
    1.5611   -0.2958   -1.2751 C   0  0  0  0  0  0  0  0  0  0  0  0
    1.1763   -0.1154   -2.4637 O   0  0  0  0  0  0  0  0  0  0  0  0
    2.9464   -0.7605   -1.0077 C   0  0  0  0  0  0  0  0  0  0  0  0
    3.8395   -0.9389   -2.0834 C   0  0  0  0  0  0  0  0  0  0  0  0
    5.1472   -1.3759   -1.8599 C   0  0  0  0  0  0  0  0  0  0  0  0
    5.5844   -1.6421   -0.5631 C   0  0  0  0  0  0  0  0  0  0  0  0
    4.7150   -1.4726    0.5148 C   0  0  0  0  0  0  0  0  0  0  0  0
    3.3983   -1.0343    0.3054 C   0  0  0  0  0  0  0  0  0  0  0  0
    2.5498   -0.8768    1.4013 O   0  0  0  0  0  0  0  0  0  0  0  0
   -1.3100   -3.4804    0.6223 H   0  0  0  0  0  0  0  0  0  0  0  0
   -0.7015   -2.3238   -0.5817 H   0  0  0  0  0  0  0  0  0  0  0  0
   -0.0030   -2.3306    1.0913 H   0  0  0  0  0  0  0  0  0  0  0  0
   -2.8685   -1.5210    0.2695 H   0  0  0  0  0  0  0  0  0  0  0  0
   -2.7726   -2.8877    2.3905 H   0  0  0  0  0  0  0  0  0  0  0  0
   -1.6239   -1.6939    3.1005 H   0  0  0  0  0  0  0  0  0  0  0  0
   -3.3235   -1.2319    2.7159 H   0  0  0  0  0  0  0  0  0  0  0  0
   -0.7947    0.1973    1.7727 H   0  0  0  0  0  0  0  0  0  0  0  0
   -3.5058    0.6463    1.6684 H   0  0  0  0  0  0  0  0  0  0  0  0
   -2.2891    1.9340    1.7257 H   0  0  0  0  0  0  0  0  0  0  0  0
   -4.0710    2.2755   -0.0227 H   0  0  0  0  0  0  0  0  0  0  0  0
   -3.5440    0.7761   -0.8323 H   0  0  0  0  0  0  0  0  0  0  0  0
   -2.2844    2.2403   -2.0836 H   0  0  0  0  0  0  0  0  0  0  0  0
   -3.1802    4.2958   -1.0737 H   0  0  0  0  0  0  0  0  0  0  0  0
   -1.4052    4.4484   -1.3199 H   0  0  0  0  0  0  0  0  0  0  0  0
   -2.0608    4.1378    0.3362 H   0  0  0  0  0  0  0  0  0  0  0  0
   -0.0084    2.1122   -1.5480 H   0  0  0  0  0  0  0  0  0  0  0  0
   -0.2473    2.4275    0.1991 H   0  0  0  0  0  0  0  0  0  0  0  0
   -1.1360   -0.1379   -1.2490 H   0  0  0  0  0  0  0  0  0  0  0  0
    3.5290   -0.7393   -3.1014 H   0  0  0  0  0  0  0  0  0  0  0  0
    5.8230   -1.5081   -2.6950 H   0  0  0  0  0  0  0  0  0  0  0  0
    6.5982   -1.9806   -0.3928 H   0  0  0  0  0  0  0  0  0  0  0  0
    5.0656   -1.6833    1.5173 H   0  0  0  0  0  0  0  0  0  0  0  0
    2.8576   -1.0716    2.3468 H   0  0  0  0  0  0  0  0  0  0  0  0
  1  2  1  0
  2  3  1  0
  2  4  1  0
  4  5  1  0
  5  6  1  0
  6  7  1  0
  7  8  1  0
  7  9  1  0
  9 10  1  0
 10 11  1  0
 11 12  1  0
 12 13  2  0
 12 14  1  0
 14 15  2  0
 15 16  1  0
 16 17  2  0
 17 18  1  0
 18 19  2  0
 19 20  1  0
 10  4  1  0
 19 14  1  0
  1 21  1  0
  1 22  1  0
  1 23  1  0
  2 24  1  0
  3 25  1  0
  3 26  1  0
  3 27  1  0
  4 28  1  1
  5 29  1  0
  5 30  1  0
  6 31  1  0
  6 32  1  0
  7 33  1  6
  8 34  1  0
  8 35  1  0
  8 36  1  0
  9 37  1  0
  9 38  1  0
 10 39  1  6
 15 40  1  0
 16 41  1  0
 17 42  1  0
 18 43  1  0
 20 44  1  0
M  END
$$$$
