
     RDKit          3D

 23 24  0  0  0  0  0  0  0  0999 V2000
   -1.7811   -2.0243    1.0221 C   0  0  0  0  0  0  0  0  0  0  0  0
   -1.2602   -0.7355    0.4587 C   0  0  0  0  0  0  0  0  0  0  0  0
   -2.1025    0.3308    0.3972 N   0  0  0  0  0  0  0  0  0  0  0  0
   -1.7028    1.5251   -0.1098 C   0  0  0  0  0  0  0  0  0  0  0  0
   -2.6137    2.6205   -0.1586 N   0  0  0  0  0  0  0  0  0  0  0  0
   -0.4361    1.6738   -0.5730 N   0  0  0  0  0  0  0  0  0  0  0  0
    0.4495    0.6446   -0.5346 C   0  0  0  0  0  0  0  0  0  0  0  0
    0.0669   -0.5959   -0.0053 C   0  0  0  0  0  0  0  0  0  0  0  0
    1.0685   -1.7250   -0.0242 C   0  0  0  0  0  0  0  0  0  0  0  0
    2.6687   -1.2289    0.7222 S   0  0  0  0  0  0  0  0  0  0  0  0
    2.8559    0.4723    0.0392 C   0  0  0  0  0  0  0  0  0  0  0  0
    1.8437    0.8364   -1.0472 C   0  0  0  0  0  0  0  0  0  0  0  0
   -1.2137   -2.2935    1.9377 H   0  0  0  0  0  0  0  0  0  0  0  0
   -1.6878   -2.8339    0.2681 H   0  0  0  0  0  0  0  0  0  0  0  0
   -2.8536   -1.9256    1.2940 H   0  0  0  0  0  0  0  0  0  0  0  0
   -3.5901    2.5123    0.1952 H   0  0  0  0  0  0  0  0  0  0  0  0
   -2.3128    3.5413   -0.5483 H   0  0  0  0  0  0  0  0  0  0  0  0
    0.7106   -2.6142    0.5302 H   0  0  0  0  0  0  0  0  0  0  0  0
    1.2426   -2.0388   -1.0750 H   0  0  0  0  0  0  0  0  0  0  0  0
    3.8811    0.5701   -0.3756 H   0  0  0  0  0  0  0  0  0  0  0  0
    2.7639    1.1936    0.8794 H   0  0  0  0  0  0  0  0  0  0  0  0
    2.0041    0.1997   -1.9436 H   0  0  0  0  0  0  0  0  0  0  0  0
    1.9990    1.8951   -1.3488 H   0  0  0  0  0  0  0  0  0  0  0  0
  1  2  1  0
  2  3  2  0
  3  4  1  0
  4  5  1  0
  4  6  2  0
  6  7  1  0
  7  8  2  0
  8  9  1  0
  9 10  1  0
 10 11  1  0
 11 12  1  0
  8  2  1  0
 12  7  1  0
  1 13  1  0
  1 14  1  0
  1 15  1  0
  5 16  1  0
  5 17  1  0
  9 18  1  0
  9 19  1  0
 11 20  1  0
 11 21  1  0
 12 22  1  0
 12 23  1  0
M  END
$$$$
