
     RDKit          3D

 53 56  0  0  0  0  0  0  0  0999 V2000
    2.1881   -1.9008    0.4104 C   0  0  1  0  0  0  0  0  0  0  0  0
    1.5541   -2.3895    1.6390 N   0  0  0  0  0  0  0  0  0  0  0  0
    1.2506   -0.8888   -0.2793 C   0  0  0  0  0  0  0  0  0  0  0  0
    1.3101    0.4235    0.3849 N   0  0  0  0  0  0  0  0  0  0  0  0
    2.6088    1.0007    0.7628 C   0  0  0  0  0  0  0  0  0  0  0  0
    3.7744    0.1491    0.2512 C   0  0  0  0  0  0  0  0  0  0  0  0
    3.6127   -1.3143    0.7068 C   0  0  2  0  0  0  0  0  0  0  0  0
    4.7206   -2.1833    0.1289 C   0  0  0  0  0  0  0  0  0  0  0  0
    5.6824   -2.7480    0.9884 C   0  0  0  0  0  0  0  0  0  0  0  0
    6.7139   -3.5423    0.4790 C   0  0  0  0  0  0  0  0  0  0  0  0
    7.6317   -4.0789    1.3208 F   0  0  0  0  0  0  0  0  0  0  0  0
    6.7998   -3.7825   -0.8942 C   0  0  0  0  0  0  0  0  0  0  0  0
    7.8000   -4.5531   -1.3889 F   0  0  0  0  0  0  0  0  0  0  0  0
    5.8541   -3.2290   -1.7596 C   0  0  0  0  0  0  0  0  0  0  0  0
    4.8192   -2.4330   -1.2582 C   0  0  0  0  0  0  0  0  0  0  0  0
    3.9132   -1.9184   -2.1272 F   0  0  0  0  0  0  0  0  0  0  0  0
    0.1189    1.2049    0.6084 C   0  0  0  0  0  0  0  0  0  0  0  0
    0.0546    2.0351    1.6844 N   0  0  0  0  0  0  0  0  0  0  0  0
   -1.0460    2.7892    1.9299 C   0  0  0  0  0  0  0  0  0  0  0  0
   -2.1090    2.7349    1.0886 N   0  0  0  0  0  0  0  0  0  0  0  0
   -2.1003    1.9413   -0.0171 C   0  0  0  0  0  0  0  0  0  0  0  0
   -0.9695    1.1495   -0.2770 C   0  0  0  0  0  0  0  0  0  0  0  0
   -3.2887    1.9239   -0.9081 C   0  0  0  0  0  0  0  0  0  0  0  0
   -3.1667    1.6784   -2.2896 C   0  0  0  0  0  0  0  0  0  0  0  0
   -4.2981    1.6685   -3.1095 C   0  0  0  0  0  0  0  0  0  0  0  0
   -5.5612    1.9114   -2.5674 C   0  0  0  0  0  0  0  0  0  0  0  0
   -5.6993    2.1772   -1.1999 C   0  0  0  0  0  0  0  0  0  0  0  0
   -4.5659    2.1801   -0.3750 C   0  0  0  0  0  0  0  0  0  0  0  0
   -7.2924    2.4716   -0.5107 S   0  0  0  0  0  6  0  0  0  0  0  0
   -7.9680    0.9398    0.0883 C   0  0  0  0  0  0  0  0  0  0  0  0
   -8.2047    3.0470   -1.5575 O   0  0  0  0  0  0  0  0  0  0  0  0
   -7.1818    3.4515    0.6237 O   0  0  0  0  0  0  0  0  0  0  0  0
    2.2680   -2.7708   -0.2787 H   0  0  0  0  0  0  0  0  0  0  0  0
    2.1625   -3.1300    2.0587 H   0  0  0  0  0  0  0  0  0  0  0  0
    1.4833   -1.6072    2.3304 H   0  0  0  0  0  0  0  0  0  0  0  0
    0.2174   -1.2994   -0.2602 H   0  0  0  0  0  0  0  0  0  0  0  0
    1.5443   -0.7682   -1.3443 H   0  0  0  0  0  0  0  0  0  0  0  0
    2.7010    2.0223    0.3337 H   0  0  0  0  0  0  0  0  0  0  0  0
    2.6682    1.0798    1.8703 H   0  0  0  0  0  0  0  0  0  0  0  0
    4.7289    0.5618    0.6455 H   0  0  0  0  0  0  0  0  0  0  0  0
    3.8094    0.2203   -0.8567 H   0  0  0  0  0  0  0  0  0  0  0  0
    3.7453   -1.2836    1.8125 H   0  0  0  0  0  0  0  0  0  0  0  0
    5.6364   -2.5740    2.0563 H   0  0  0  0  0  0  0  0  0  0  0  0
    5.9220   -3.4180   -2.8233 H   0  0  0  0  0  0  0  0  0  0  0  0
   -1.0758    3.4347    2.7967 H   0  0  0  0  0  0  0  0  0  0  0  0
   -0.9347    0.5051   -1.1441 H   0  0  0  0  0  0  0  0  0  0  0  0
   -2.1991    1.5155   -2.7451 H   0  0  0  0  0  0  0  0  0  0  0  0
   -4.1945    1.4763   -4.1696 H   0  0  0  0  0  0  0  0  0  0  0  0
   -6.4289    1.8938   -3.2143 H   0  0  0  0  0  0  0  0  0  0  0  0
   -4.6836    2.3665    0.6855 H   0  0  0  0  0  0  0  0  0  0  0  0
   -8.0544    0.2194   -0.7511 H   0  0  0  0  0  0  0  0  0  0  0  0
   -7.2989    0.5189    0.8669 H   0  0  0  0  0  0  0  0  0  0  0  0
   -8.9722    1.1212    0.5237 H   0  0  0  0  0  0  0  0  0  0  0  0
  1  2  1  0
  1  3  1  0
  3  4  1  0
  4  5  1  0
  5  6  1  0
  6  7  1  0
  7  8  1  0
  8  9  2  0
  9 10  1  0
 10 11  1  0
 10 12  2  0
 12 13  1  0
 12 14  1  0
 14 15  2  0
 15 16  1  0
  4 17  1  0
 17 18  2  0
 18 19  1  0
 19 20  2  0
 20 21  1  0
 21 22  2  0
 21 23  1  0
 23 24  2  0
 24 25  1  0
 25 26  2  0
 26 27  1  0
 27 28  2  0
 27 29  1  0
 29 30  1  0
 29 31  2  0
 29 32  2  0
  7  1  1  0
 15  8  1  0
 22 17  1  0
 28 23  1  0
  1 33  1  6
  2 34  1  0
  2 35  1  0
  3 36  1  0
  3 37  1  0
  5 38  1  0
  5 39  1  0
  6 40  1  0
  6 41  1  0
  7 42  1  1
  9 43  1  0
 14 44  1  0
 19 45  1  0
 22 46  1  0
 24 47  1  0
 25 48  1  0
 26 49  1  0
 28 50  1  0
 30 51  1  0
 30 52  1  0
 30 53  1  0
M  END
$$$$
