
     RDKit          3D

 82 88  0  0  0  0  0  0  0  0999 V2000
   -4.6827   -1.5570   -1.4170 C   0  0  2  0  0  0  0  0  0  0  0  0
   -4.7211   -2.3971   -2.6968 C   0  0  0  0  0  0  0  0  0  0  0  0
   -6.1414   -2.2345   -3.2426 C   0  0  0  0  0  0  0  0  0  0  0  0
   -6.6829   -0.9437   -2.6348 C   0  0  0  0  0  0  0  0  0  0  0  0
   -5.8044   -0.6461   -1.5199 N   0  0  0  0  0  0  0  0  0  0  0  0
   -5.9397    0.4983   -0.6647 C   0  0  0  0  0  0  0  0  0  0  0  0
   -7.0193    1.1479   -0.6623 O   0  0  0  0  0  0  0  0  0  0  0  0
   -4.8101    0.8743    0.2818 C   0  0  2  0  0  0  0  0  0  0  0  0
   -4.4864    2.3978    0.3150 C   0  0  0  0  0  0  0  0  0  0  0  0
   -5.5761    3.2190    1.0223 C   0  0  0  0  0  0  0  0  0  0  0  0
   -4.1868    2.9788   -1.0748 C   0  0  0  0  0  0  0  0  0  0  0  0
   -3.5896    0.1116   -0.0409 N   0  0  0  0  0  0  0  0  0  0  0  0
   -2.5546   -0.1856    0.8502 C   0  0  0  0  0  0  0  0  0  0  0  0
   -2.4556    0.3182    2.0014 O   0  0  0  0  0  0  0  0  0  0  0  0
   -1.6465   -1.1973    0.2658 C   0  0  2  0  0  0  0  0  0  0  0  0
   -0.3739   -0.5616   -0.1145 N   0  0  0  0  0  0  0  0  0  0  0  0
    0.5525    0.0442    0.8049 C   0  0  0  0  0  0  0  0  0  0  0  0
    0.3135    0.0533    2.0430 O   0  0  0  0  0  0  0  0  0  0  0  0
    1.8500    0.6184    0.2942 C   0  0  1  0  0  0  0  0  0  0  0  0
    2.1283    2.0003    0.9071 C   0  0  0  0  0  0  0  0  0  0  0  0
    3.3943    2.5636    0.3866 N   0  0  0  0  0  0  0  0  0  0  0  0
    3.5544    3.9312    0.9196 C   0  0  0  0  0  0  0  0  0  0  0  0
    4.5364    1.6825    0.7583 C   0  0  2  0  0  0  0  0  0  0  0  0
    5.9187    2.2990    0.3471 C   0  0  0  0  0  0  0  0  0  0  0  0
    7.0029    1.2875    0.5512 C   0  0  0  0  0  0  0  0  0  0  0  0
    8.3837    1.4120    0.6700 C   0  0  0  0  0  0  0  0  0  0  0  0
    8.9508    0.1784    0.7597 N   0  0  0  0  0  0  0  0  0  0  0  0
    7.9332   -0.7023    0.6817 C   0  0  0  0  0  0  0  0  0  0  0  0
    7.9757   -2.0952    0.6693 C   0  0  0  0  0  0  0  0  0  0  0  0
    6.7517   -2.7823    0.5032 C   0  0  0  0  0  0  0  0  0  0  0  0
    5.5333   -2.0688    0.3496 C   0  0  0  0  0  0  0  0  0  0  0  0
    5.5274   -0.6532    0.3977 C   0  0  0  0  0  0  0  0  0  0  0  0
    6.7552   -0.0430    0.5509 C   0  0  0  0  0  0  0  0  0  0  0  0
    4.3353    0.2568    0.1147 C   0  0  1  0  0  0  0  0  0  0  0  0
    3.0046   -0.3457    0.5929 C   0  0  0  0  0  0  0  0  0  0  0  0
   -2.3030   -1.6397   -0.9178 O   0  0  0  0  0  0  0  0  0  0  0  0
   -3.3909   -0.7530   -1.1963 C   0  0  1  0  0  0  0  0  0  0  0  0
   -3.1040    0.0495   -2.3177 O   0  0  0  0  0  0  0  0  0  0  0  0
   -1.4209   -2.4145    1.2162 C   0  0  0  0  0  0  0  0  0  0  0  0
   -0.3951   -3.4007    0.6333 C   0  0  0  0  0  0  0  0  0  0  0  0
   -2.7315   -3.1619    1.5216 C   0  0  0  0  0  0  0  0  0  0  0  0
   -4.8541   -2.2199   -0.5399 H   0  0  0  0  0  0  0  0  0  0  0  0
   -4.0006   -2.0304   -3.4572 H   0  0  0  0  0  0  0  0  0  0  0  0
   -4.4951   -3.4639   -2.4806 H   0  0  0  0  0  0  0  0  0  0  0  0
   -6.7658   -3.0926   -2.9094 H   0  0  0  0  0  0  0  0  0  0  0  0
   -6.1457   -2.1911   -4.3534 H   0  0  0  0  0  0  0  0  0  0  0  0
   -7.7271   -1.0813   -2.2797 H   0  0  0  0  0  0  0  0  0  0  0  0
   -6.6381   -0.1158   -3.3752 H   0  0  0  0  0  0  0  0  0  0  0  0
   -5.1389    0.5636    1.2980 H   0  0  0  0  0  0  0  0  0  0  0  0
   -3.5645    2.5282    0.9239 H   0  0  0  0  0  0  0  0  0  0  0  0
   -6.4890    3.3105    0.3997 H   0  0  0  0  0  0  0  0  0  0  0  0
   -5.2001    4.2447    1.2247 H   0  0  0  0  0  0  0  0  0  0  0  0
   -5.8428    2.7564    1.9962 H   0  0  0  0  0  0  0  0  0  0  0  0
   -3.9485    4.0607   -0.9919 H   0  0  0  0  0  0  0  0  0  0  0  0
   -3.3042    2.4766   -1.5194 H   0  0  0  0  0  0  0  0  0  0  0  0
   -5.0563    2.8617   -1.7551 H   0  0  0  0  0  0  0  0  0  0  0  0
   -0.1223   -0.5567   -1.1292 H   0  0  0  0  0  0  0  0  0  0  0  0
    1.7758    0.7486   -0.8088 H   0  0  0  0  0  0  0  0  0  0  0  0
    2.1622    1.9296    2.0196 H   0  0  0  0  0  0  0  0  0  0  0  0
    1.2786    2.6658    0.6328 H   0  0  0  0  0  0  0  0  0  0  0  0
    4.3428    4.4724    0.3571 H   0  0  0  0  0  0  0  0  0  0  0  0
    3.8068    3.9164    2.0033 H   0  0  0  0  0  0  0  0  0  0  0  0
    2.6255    4.5253    0.7771 H   0  0  0  0  0  0  0  0  0  0  0  0
    4.5590    1.5559    1.8675 H   0  0  0  0  0  0  0  0  0  0  0  0
    5.8980    2.5973   -0.7229 H   0  0  0  0  0  0  0  0  0  0  0  0
    6.1557    3.1851    0.9725 H   0  0  0  0  0  0  0  0  0  0  0  0
    8.9397    2.3401    0.6760 H   0  0  0  0  0  0  0  0  0  0  0  0
    9.9686   -0.0388    0.8440 H   0  0  0  0  0  0  0  0  0  0  0  0
    8.9114   -2.6304    0.7642 H   0  0  0  0  0  0  0  0  0  0  0  0
    6.7464   -3.8640    0.4711 H   0  0  0  0  0  0  0  0  0  0  0  0
    4.6226   -2.6256    0.1829 H   0  0  0  0  0  0  0  0  0  0  0  0
    4.2802    0.3824   -0.9900 H   0  0  0  0  0  0  0  0  0  0  0  0
    2.8040   -1.2979    0.0569 H   0  0  0  0  0  0  0  0  0  0  0  0
    3.0592   -0.5576    1.6845 H   0  0  0  0  0  0  0  0  0  0  0  0
   -2.4297   -0.4204   -2.8737 H   0  0  0  0  0  0  0  0  0  0  0  0
   -1.0209   -2.0532    2.1875 H   0  0  0  0  0  0  0  0  0  0  0  0
   -0.7315   -3.7790   -0.3557 H   0  0  0  0  0  0  0  0  0  0  0  0
   -0.2603   -4.2650    1.3183 H   0  0  0  0  0  0  0  0  0  0  0  0
    0.5947   -2.9126    0.5140 H   0  0  0  0  0  0  0  0  0  0  0  0
   -3.1491   -3.6209    0.6005 H   0  0  0  0  0  0  0  0  0  0  0  0
   -3.4866   -2.4741    1.9565 H   0  0  0  0  0  0  0  0  0  0  0  0
   -2.5456   -3.9692    2.2618 H   0  0  0  0  0  0  0  0  0  0  0  0
  1  2  1  0
  2  3  1  0
  3  4  1  0
  4  5  1  0
  5  6  1  0
  6  7  2  0
  6  8  1  0
  8  9  1  0
  9 10  1  0
  9 11  1  0
  8 12  1  0
 12 13  1  0
 13 14  2  0
 13 15  1  0
 15 16  1  6
 16 17  1  0
 17 18  2  0
 17 19  1  0
 19 20  1  0
 20 21  1  0
 21 22  1  0
 21 23  1  0
 23 24  1  0
 24 25  1  0
 25 26  2  0
 26 27  1  0
 27 28  1  0
 28 29  2  0
 29 30  1  0
 30 31  2  0
 31 32  1  0
 32 33  2  0
 32 34  1  0
 34 35  1  0
 15 36  1  0
 36 37  1  0
 37 38  1  6
 15 39  1  0
 39 40  1  0
 39 41  1  0
  5  1  1  0
 37 12  1  0
 37  1  1  0
 35 19  1  0
 34 23  1  0
 33 25  1  0
 33 28  1  0
  1 42  1  1
  2 43  1  0
  2 44  1  0
  3 45  1  0
  3 46  1  0
  4 47  1  0
  4 48  1  0
  8 49  1  1
  9 50  1  0
 10 51  1  0
 10 52  1  0
 10 53  1  0
 11 54  1  0
 11 55  1  0
 11 56  1  0
 16 57  1  0
 19 58  1  6
 20 59  1  0
 20 60  1  0
 22 61  1  0
 22 62  1  0
 22 63  1  0
 23 64  1  1
 24 65  1  0
 24 66  1  0
 26 67  1  0
 27 68  1  0
 29 69  1  0
 30 70  1  0
 31 71  1  0
 34 72  1  6
 35 73  1  0
 35 74  1  0
 38 75  1  0
 39 76  1  0
 40 77  1  0
 40 78  1  0
 40 79  1  0
 41 80  1  0
 41 81  1  0
 41 82  1  0
M  END
$$$$
