
     RDKit          3D

 30 32  0  0  0  0  0  0  0  0999 V2000
    3.9566   -0.6671    0.1832 N   0  0  0  0  0  0  0  0  0  0  0  0
    3.3130    0.3619   -0.5698 C   0  0  0  0  0  0  0  0  0  0  0  0
    4.0049    1.2763   -1.0920 O   0  0  0  0  0  0  0  0  0  0  0  0
    1.8187    0.3851   -0.7124 C   0  0  2  0  0  0  0  0  0  0  0  0
    1.1583    0.8674    0.5880 C   0  0  0  0  0  0  0  0  0  0  0  0
   -0.3840    0.8004    0.4956 C   0  0  1  0  0  0  0  0  0  0  0  0
   -0.9502    0.9892    1.8344 N   0  0  0  0  0  0  0  0  0  0  0  0
   -1.7302    2.1764    1.8250 C   0  0  0  0  0  0  0  0  0  0  0  0
   -2.3441    2.6108    2.8342 O   0  0  0  0  0  0  0  0  0  0  0  0
   -1.7539    2.8152    0.5650 N   0  0  0  0  0  0  0  0  0  0  0  0
   -0.9509    1.9818   -0.2579 C   0  0  0  0  0  0  0  0  0  0  0  0
   -0.7697    2.2082   -1.4837 O   0  0  0  0  0  0  0  0  0  0  0  0
   -0.8681   -0.5067   -0.1132 C   0  0  0  0  0  0  0  0  0  0  0  0
    0.0184   -1.3069   -0.8660 C   0  0  0  0  0  0  0  0  0  0  0  0
    1.3500   -0.9194   -1.0488 O   0  0  0  0  0  0  0  0  0  0  0  0
   -0.4246   -2.5102   -1.4251 C   0  0  0  0  0  0  0  0  0  0  0  0
   -1.7528   -2.9122   -1.2682 C   0  0  0  0  0  0  0  0  0  0  0  0
   -2.6459   -2.1124   -0.5516 C   0  0  0  0  0  0  0  0  0  0  0  0
   -3.9377   -2.4991   -0.4107 F   0  0  0  0  0  0  0  0  0  0  0  0
   -2.2098   -0.9134    0.0197 C   0  0  0  0  0  0  0  0  0  0  0  0
    4.9955   -0.6714    0.2875 H   0  0  0  0  0  0  0  0  0  0  0  0
    3.3999   -1.4220    0.6418 H   0  0  0  0  0  0  0  0  0  0  0  0
    1.5496    1.0778   -1.5387 H   0  0  0  0  0  0  0  0  0  0  0  0
    1.4945    0.2144    1.4245 H   0  0  0  0  0  0  0  0  0  0  0  0
    1.4859    1.9057    0.8192 H   0  0  0  0  0  0  0  0  0  0  0  0
   -0.8045    0.3640    2.6586 H   0  0  0  0  0  0  0  0  0  0  0  0
   -2.2710    3.6804    0.2929 H   0  0  0  0  0  0  0  0  0  0  0  0
    0.2607   -3.1296   -1.9897 H   0  0  0  0  0  0  0  0  0  0  0  0
   -2.0908   -3.8415   -1.7082 H   0  0  0  0  0  0  0  0  0  0  0  0
   -2.9177   -0.3031    0.5661 H   0  0  0  0  0  0  0  0  0  0  0  0
  1  2  1  0
  2  3  2  0
  2  4  1  0
  4  5  1  0
  5  6  1  0
  6  7  1  1
  7  8  1  0
  8  9  2  0
  8 10  1  0
 10 11  1  0
 11 12  2  0
  6 13  1  0
 13 14  2  0
 14 15  1  0
 14 16  1  0
 16 17  2  0
 17 18  1  0
 18 19  1  0
 18 20  2  0
 15  4  1  0
 11  6  1  0
 20 13  1  0
  1 21  1  0
  1 22  1  0
  4 23  1  6
  5 24  1  0
  5 25  1  0
  7 26  1  0
 10 27  1  0
 16 28  1  0
 17 29  1  0
 20 30  1  0
M  END
$$$$
