
     RDKit          3D

 39 42  0  0  0  0  0  0  0  0999 V2000
   -5.1245   -4.5930    0.7070 Br  0  0  0  0  0  0  0  0  0  0  0  0
   -3.9643   -3.1444    1.1582 C   0  0  0  0  0  0  0  0  0  0  0  0
   -4.0400   -2.5579    2.4241 C   0  0  0  0  0  0  0  0  0  0  0  0
   -3.1893   -1.5018    2.7562 C   0  0  0  0  0  0  0  0  0  0  0  0
   -2.2641   -1.0243    1.8232 C   0  0  0  0  0  0  0  0  0  0  0  0
   -2.1847   -1.5983    0.5387 C   0  0  0  0  0  0  0  0  0  0  0  0
   -3.0393   -2.6709    0.2211 C   0  0  0  0  0  0  0  0  0  0  0  0
   -1.2029   -1.1140   -0.4640 C   0  0  0  0  0  0  0  0  0  0  0  0
   -0.7097   -1.9905   -1.3916 N   0  0  0  0  0  0  0  0  0  0  0  0
    0.1912   -1.5557   -2.3043 C   0  0  0  0  0  0  0  0  0  0  0  0
    0.6127   -0.2876   -2.3285 N   0  0  0  0  0  4  0  0  0  0  0  0
    1.4365   -0.1253   -3.3496 N   0  0  0  0  0  0  0  0  0  0  0  0
    1.5553   -1.3170   -3.9788 C   0  0  0  0  0  0  0  0  0  0  0  0
    0.7670   -2.2673   -3.3331 C   0  0  0  0  0  0  0  0  0  0  0  0
    0.1679    0.6426   -1.4435 C   0  0  0  0  0  0  0  0  0  0  0  0
    0.6549    1.9894   -1.4600 N   0  0  0  0  0  0  0  0  0  0  0  0
    2.0485    2.2779   -1.1328 C   0  0  0  0  0  0  0  0  0  0  0  0
    2.2202    2.3215    0.3603 C   0  0  0  0  0  0  0  0  0  0  0  0
    2.4747    1.1431    1.0773 C   0  0  0  0  0  0  0  0  0  0  0  0
    2.5780    1.1940    2.4693 C   0  0  0  0  0  0  0  0  0  0  0  0
    2.4224    2.3764    3.1221 N   0  0  0  0  0  0  0  0  0  0  0  0
    2.1624    3.5310    2.4529 C   0  0  0  0  0  0  0  0  0  0  0  0
    2.0494    3.5243    1.0604 C   0  0  0  0  0  0  0  0  0  0  0  0
   -0.7780    0.2389   -0.4880 C   0  0  0  0  0  0  0  0  0  0  0  0
   -4.7533   -2.9229    3.1518 H   0  0  0  0  0  0  0  0  0  0  0  0
   -3.2419   -1.0562    3.7412 H   0  0  0  0  0  0  0  0  0  0  0  0
   -1.5982   -0.2249    2.1199 H   0  0  0  0  0  0  0  0  0  0  0  0
   -2.9986   -3.1333   -0.7573 H   0  0  0  0  0  0  0  0  0  0  0  0
    1.8830    0.7731   -3.6387 H   0  0  0  0  0  0  0  0  0  0  0  0
    2.1587   -1.4841   -4.8611 H   0  0  0  0  0  0  0  0  0  0  0  0
    0.6229   -3.3072   -3.5937 H   0  0  0  0  0  0  0  0  0  0  0  0
   -0.0363    2.7532   -1.2823 H   0  0  0  0  0  0  0  0  0  0  0  0
    2.3357    3.2525   -1.5833 H   0  0  0  0  0  0  0  0  0  0  0  0
    2.7217    1.5076   -1.5653 H   0  0  0  0  0  0  0  0  0  0  0  0
    2.5856    0.1956    0.5643 H   0  0  0  0  0  0  0  0  0  0  0  0
    2.7772    0.2915    3.0315 H   0  0  0  0  0  0  0  0  0  0  0  0
    2.0378    4.4545    3.0025 H   0  0  0  0  0  0  0  0  0  0  0  0
    1.8283    4.4449    0.5347 H   0  0  0  0  0  0  0  0  0  0  0  0
   -1.1669    0.9647    0.2139 H   0  0  0  0  0  0  0  0  0  0  0  0
  1  2  1  0
  2  3  2  0
  3  4  1  0
  4  5  2  0
  5  6  1  0
  6  7  2  0
  6  8  1  0
  8  9  2  0
  9 10  1  0
 10 11  2  0
 11 12  1  0
 12 13  1  0
 13 14  2  0
 11 15  1  0
 15 16  1  0
 16 17  1  0
 17 18  1  0
 18 19  2  0
 19 20  1  0
 20 21  2  0
 21 22  1  0
 22 23  2  0
 15 24  2  0
  7  2  1  0
 24  8  1  0
 14 10  1  0
 23 18  1  0
  3 25  1  0
  4 26  1  0
  5 27  1  0
  7 28  1  0
 12 29  1  0
 13 30  1  0
 14 31  1  0
 16 32  1  0
 17 33  1  0
 17 34  1  0
 19 35  1  0
 20 36  1  0
 22 37  1  0
 23 38  1  0
 24 39  1  0
M  CHG  1  11   1
M  END
$$$$
