
     RDKit          3D

 48 50  0  0  0  0  0  0  0  0999 V2000
    1.3025    2.7971    0.9096 C   0  0  0  0  0  0  0  0  0  0  0  0
    1.9505    1.4911    0.5748 C   0  0  0  0  0  0  0  0  0  0  0  0
    1.2469    0.2995    0.3913 C   0  0  0  0  0  0  0  0  0  0  0  0
   -0.2370    0.1176    0.4164 C   0  0  0  0  0  0  0  0  0  0  0  0
   -0.9285    0.5478   -1.2130 S   0  0  0  0  0  0  0  0  0  0  0  0
   -2.6245    0.2850   -0.6936 C   0  0  0  0  0  0  0  0  0  0  0  0
   -3.3615    1.3418   -0.1515 C   0  0  0  0  0  0  0  0  0  0  0  0
   -4.6903    1.1445    0.2589 C   0  0  0  0  0  0  0  0  0  0  0  0
   -5.4749    2.2860    0.8423 C   0  0  0  0  0  0  0  0  0  0  0  0
   -5.2861   -0.1251    0.1184 C   0  0  0  0  0  0  0  0  0  0  0  0
   -6.6185   -0.2959    0.5364 O   0  0  0  0  0  0  0  0  0  0  0  0
   -7.3803   -1.4957    0.4048 C   0  0  0  0  0  0  0  0  0  0  0  0
   -7.7258   -1.7462   -1.0290 C   0  0  0  0  0  0  0  0  0  0  0  0
   -8.1970   -0.7039   -1.8210 O   0  0  0  0  0  0  0  0  0  0  0  0
   -7.6215   -2.9058   -1.5104 O   0  0  0  0  0  0  0  0  0  0  0  0
   -4.5327   -1.1818   -0.4316 C   0  0  0  0  0  0  0  0  0  0  0  0
   -3.2122   -0.9739   -0.8353 C   0  0  0  0  0  0  0  0  0  0  0  0
    2.3555   -0.9063    0.0139 S   0  0  0  0  0  0  0  0  0  0  0  0
    3.6885    0.1223    0.1274 C   0  0  0  0  0  0  0  0  0  0  0  0
    3.2999    1.3817    0.4362 N   0  0  0  0  0  0  0  0  0  0  0  0
    5.1019   -0.2661   -0.0853 C   0  0  0  0  0  0  0  0  0  0  0  0
    5.4489   -1.5911   -0.4024 C   0  0  0  0  0  0  0  0  0  0  0  0
    6.7861   -1.9468   -0.6012 C   0  0  0  0  0  0  0  0  0  0  0  0
    7.8029   -0.9826   -0.5057 C   0  0  0  0  0  0  0  0  0  0  0  0
    7.4598    0.3353   -0.1620 C   0  0  0  0  0  0  0  0  0  0  0  0
    6.1230    0.6918    0.0369 C   0  0  0  0  0  0  0  0  0  0  0  0
    9.2488   -1.3777   -0.6712 C   0  0  0  0  0  0  0  0  0  0  0  0
    9.3691   -2.4304   -1.5619 F   0  0  0  0  0  0  0  0  0  0  0  0
    9.9936   -0.3156   -1.1544 F   0  0  0  0  0  0  0  0  0  0  0  0
    9.7580   -1.7642    0.5544 F   0  0  0  0  0  0  0  0  0  0  0  0
    0.8332    2.7349    1.9135 H   0  0  0  0  0  0  0  0  0  0  0  0
    2.0573    3.6115    0.9168 H   0  0  0  0  0  0  0  0  0  0  0  0
    0.5259    3.0389    0.1541 H   0  0  0  0  0  0  0  0  0  0  0  0
   -0.4767   -0.9407    0.6535 H   0  0  0  0  0  0  0  0  0  0  0  0
   -0.6820    0.7640    1.2023 H   0  0  0  0  0  0  0  0  0  0  0  0
   -2.8957    2.3143   -0.0473 H   0  0  0  0  0  0  0  0  0  0  0  0
   -6.3686    2.4844    0.2138 H   0  0  0  0  0  0  0  0  0  0  0  0
   -4.8699    3.2162    0.8934 H   0  0  0  0  0  0  0  0  0  0  0  0
   -5.8035    2.0267    1.8708 H   0  0  0  0  0  0  0  0  0  0  0  0
   -8.3253   -1.3773    0.9741 H   0  0  0  0  0  0  0  0  0  0  0  0
   -6.8280   -2.3544    0.8443 H   0  0  0  0  0  0  0  0  0  0  0  0
   -8.4447   -0.8595   -2.7908 H   0  0  0  0  0  0  0  0  0  0  0  0
   -4.9553   -2.1690   -0.5514 H   0  0  0  0  0  0  0  0  0  0  0  0
   -2.6448   -1.7948   -1.2554 H   0  0  0  0  0  0  0  0  0  0  0  0
    4.6911   -2.3582   -0.4924 H   0  0  0  0  0  0  0  0  0  0  0  0
    7.0251   -2.9784   -0.8279 H   0  0  0  0  0  0  0  0  0  0  0  0
    8.2263    1.0911   -0.0448 H   0  0  0  0  0  0  0  0  0  0  0  0
    5.8905    1.7181    0.2922 H   0  0  0  0  0  0  0  0  0  0  0  0
  1  2  1  0
  2  3  2  0
  3  4  1  0
  4  5  1  0
  5  6  1  0
  6  7  2  0
  7  8  1  0
  8  9  1  0
  8 10  2  0
 10 11  1  0
 11 12  1  0
 12 13  1  0
 13 14  1  0
 13 15  2  0
 10 16  1  0
 16 17  2  0
  3 18  1  0
 18 19  1  0
 19 20  2  0
 19 21  1  0
 21 22  2  0
 22 23  1  0
 23 24  2  0
 24 25  1  0
 25 26  2  0
 24 27  1  0
 27 28  1  0
 27 29  1  0
 27 30  1  0
 20  2  1  0
 26 21  1  0
 17  6  1  0
  1 31  1  0
  1 32  1  0
  1 33  1  0
  4 34  1  0
  4 35  1  0
  7 36  1  0
  9 37  1  0
  9 38  1  0
  9 39  1  0
 12 40  1  0
 12 41  1  0
 14 42  1  0
 16 43  1  0
 17 44  1  0
 22 45  1  0
 23 46  1  0
 25 47  1  0
 26 48  1  0
M  END
$$$$
