
     RDKit          3D

 48 50  0  0  0  0  0  0  0  0999 V2000
   -6.6900    2.2310    1.4281 O   0  0  0  0  0  0  0  0  0  0  0  0
   -5.5776    1.7987    0.7878 N   0  0  0  0  0  0  0  0  0  0  0  0
   -4.7302    0.8152    1.3960 C   0  0  0  0  0  0  0  0  0  0  0  0
   -4.9853    0.4462    2.5755 O   0  0  0  0  0  0  0  0  0  0  0  0
   -3.4976    0.2721    0.6720 C   0  0  0  0  0  0  0  0  0  0  0  0
   -2.9229   -0.9752    1.3959 C   0  0  0  0  0  0  0  0  0  0  0  0
   -3.8507   -2.1907    1.2248 C   0  0  0  0  0  0  0  0  0  0  0  0
   -4.0516   -2.4879   -0.1443 O   0  0  0  0  0  0  0  0  0  0  0  0
   -4.7161   -1.4129   -0.7813 C   0  0  0  0  0  0  0  0  0  0  0  0
   -3.8387   -0.1528   -0.7780 C   0  0  0  0  0  0  0  0  0  0  0  0
   -2.2499    1.5768    0.6551 S   0  0  0  0  0  6  0  0  0  0  0  0
   -2.7591    2.7619   -0.1175 O   0  0  0  0  0  0  0  0  0  0  0  0
   -1.9781    2.0200    2.0662 O   0  0  0  0  0  0  0  0  0  0  0  0
   -0.7374    1.0362   -0.0757 C   0  0  0  0  0  0  0  0  0  0  0  0
    0.2715    0.4765    0.7200 C   0  0  0  0  0  0  0  0  0  0  0  0
    1.4668    0.0426    0.1398 C   0  0  0  0  0  0  0  0  0  0  0  0
    1.6727    0.1782   -1.2448 C   0  0  0  0  0  0  0  0  0  0  0  0
    2.8510   -0.2605   -1.8667 O   0  0  0  0  0  0  0  0  0  0  0  0
    4.1246   -0.2732   -1.2790 C   0  0  0  0  0  0  0  0  0  0  0  0
    5.0429   -1.2462   -1.6861 C   0  0  0  0  0  0  0  0  0  0  0  0
    6.3275   -1.2836   -1.1362 C   0  0  0  0  0  0  0  0  0  0  0  0
    6.7254   -0.3233   -0.1899 C   0  0  0  0  0  0  0  0  0  0  0  0
    5.7997    0.6511    0.2219 C   0  0  0  0  0  0  0  0  0  0  0  0
    4.5155    0.6862   -0.3290 C   0  0  0  0  0  0  0  0  0  0  0  0
    8.0935   -0.3926    0.4407 C   0  0  0  0  0  0  0  0  0  0  0  0
    8.0358   -1.1942    1.5654 F   0  0  0  0  0  0  0  0  0  0  0  0
    8.5269    0.8696    0.8083 F   0  0  0  0  0  0  0  0  0  0  0  0
    9.0142   -0.9245   -0.4455 F   0  0  0  0  0  0  0  0  0  0  0  0
    0.6561    0.7219   -2.0380 C   0  0  0  0  0  0  0  0  0  0  0  0
   -0.5393    1.1560   -1.4579 C   0  0  0  0  0  0  0  0  0  0  0  0
   -7.4158    1.6395    1.1024 H   0  0  0  0  0  0  0  0  0  0  0  0
   -5.3321    2.2320   -0.1284 H   0  0  0  0  0  0  0  0  0  0  0  0
   -2.7583   -0.7713    2.4764 H   0  0  0  0  0  0  0  0  0  0  0  0
   -1.9379   -1.2466    0.9600 H   0  0  0  0  0  0  0  0  0  0  0  0
   -3.3687   -3.0686    1.7041 H   0  0  0  0  0  0  0  0  0  0  0  0
   -4.8221   -2.0375    1.7458 H   0  0  0  0  0  0  0  0  0  0  0  0
   -4.9137   -1.7010   -1.8352 H   0  0  0  0  0  0  0  0  0  0  0  0
   -5.7056   -1.2138   -0.3103 H   0  0  0  0  0  0  0  0  0  0  0  0
   -4.3417    0.6567   -1.3442 H   0  0  0  0  0  0  0  0  0  0  0  0
   -2.9035   -0.3937   -1.3276 H   0  0  0  0  0  0  0  0  0  0  0  0
    0.1277    0.3620    1.7868 H   0  0  0  0  0  0  0  0  0  0  0  0
    2.2195   -0.4163    0.7672 H   0  0  0  0  0  0  0  0  0  0  0  0
    4.7545   -1.9858   -2.4223 H   0  0  0  0  0  0  0  0  0  0  0  0
    7.0094   -2.0638   -1.4506 H   0  0  0  0  0  0  0  0  0  0  0  0
    6.0706    1.3890    0.9665 H   0  0  0  0  0  0  0  0  0  0  0  0
    3.8341    1.4693   -0.0237 H   0  0  0  0  0  0  0  0  0  0  0  0
    0.7963    0.8147   -3.1074 H   0  0  0  0  0  0  0  0  0  0  0  0
   -1.3119    1.5785   -2.0876 H   0  0  0  0  0  0  0  0  0  0  0  0
  1  2  1  0
  2  3  1  0
  3  4  2  0
  3  5  1  0
  5  6  1  0
  6  7  1  0
  7  8  1  0
  8  9  1  0
  9 10  1  0
  5 11  1  0
 11 12  2  0
 11 13  2  0
 11 14  1  0
 14 15  2  0
 15 16  1  0
 16 17  2  0
 17 18  1  0
 18 19  1  0
 19 20  2  0
 20 21  1  0
 21 22  2  0
 22 23  1  0
 23 24  2  0
 22 25  1  0
 25 26  1  0
 25 27  1  0
 25 28  1  0
 17 29  1  0
 29 30  2  0
 10  5  1  0
 30 14  1  0
 24 19  1  0
  1 31  1  0
  2 32  1  0
  6 33  1  0
  6 34  1  0
  7 35  1  0
  7 36  1  0
  9 37  1  0
  9 38  1  0
 10 39  1  0
 10 40  1  0
 15 41  1  0
 16 42  1  0
 20 43  1  0
 21 44  1  0
 23 45  1  0
 24 46  1  0
 29 47  1  0
 30 48  1  0
M  END
$$$$
