
     RDKit          3D

 41 42  0  0  0  0  0  0  0  0999 V2000
    2.3694   -0.5965    1.4502 C   0  0  0  0  0  0  0  0  0  0  0  0
    2.5269   -1.8871    0.7826 N   0  0  0  0  0  0  0  0  0  0  0  0
    3.5578   -1.7370   -0.6143 S   0  0  0  0  0  6  0  0  0  0  0  0
    4.4835   -0.5591   -0.4737 O   0  0  0  0  0  0  0  0  0  0  0  0
    4.3839   -2.9861   -0.7328 O   0  0  0  0  0  0  0  0  0  0  0  0
    2.5882   -1.5625   -2.1076 C   0  0  0  0  0  0  0  0  0  0  0  0
    1.8002   -0.2839   -2.0884 C   0  0  0  0  0  0  0  0  0  0  0  0
    0.4880   -0.2715   -1.5679 C   0  0  0  0  0  0  0  0  0  0  0  0
   -0.1783    0.9503   -1.4998 C   0  0  0  0  0  0  0  0  0  0  0  0
    0.4000    2.1156   -1.9280 C   0  0  0  0  0  0  0  0  0  0  0  0
   -0.4122    3.1647   -1.7093 N   0  0  0  0  0  0  0  0  0  0  0  0
   -1.5225    2.6620   -1.1219 C   0  0  0  0  0  0  0  0  0  0  0  0
   -1.4155    1.2813   -0.9849 C   0  0  0  0  0  0  0  0  0  0  0  0
   -2.3700    0.3752   -0.2657 C   0  0  0  0  0  0  0  0  0  0  0  0
   -1.9059    0.1430    1.1780 C   0  0  0  0  0  0  0  0  0  0  0  0
   -2.7373   -0.8894    1.8341 N   0  0  0  0  0  0  0  0  0  0  0  0
   -3.9826   -0.3073    2.3651 C   0  0  0  0  0  0  0  0  0  0  0  0
   -1.9880   -1.5238    2.9312 C   0  0  0  0  0  0  0  0  0  0  0  0
    1.6897    2.1413   -2.4539 C   0  0  0  0  0  0  0  0  0  0  0  0
    2.3947    0.9264   -2.5291 C   0  0  0  0  0  0  0  0  0  0  0  0
    1.6241   -0.6931    2.2679 H   0  0  0  0  0  0  0  0  0  0  0  0
    3.3341   -0.2824    1.9014 H   0  0  0  0  0  0  0  0  0  0  0  0
    2.0156    0.1833    0.7435 H   0  0  0  0  0  0  0  0  0  0  0  0
    1.5859   -2.1989    0.4513 H   0  0  0  0  0  0  0  0  0  0  0  0
    3.2704   -1.5753   -2.9843 H   0  0  0  0  0  0  0  0  0  0  0  0
    1.9082   -2.4360   -2.2017 H   0  0  0  0  0  0  0  0  0  0  0  0
    0.0189   -1.1776   -1.2060 H   0  0  0  0  0  0  0  0  0  0  0  0
   -0.2147    4.1692   -1.9152 H   0  0  0  0  0  0  0  0  0  0  0  0
   -2.3535    3.2672   -0.7837 H   0  0  0  0  0  0  0  0  0  0  0  0
   -3.3809    0.8331   -0.2790 H   0  0  0  0  0  0  0  0  0  0  0  0
   -2.4257   -0.5966   -0.8017 H   0  0  0  0  0  0  0  0  0  0  0  0
   -0.8428   -0.1889    1.1380 H   0  0  0  0  0  0  0  0  0  0  0  0
   -1.9257    1.1021    1.7451 H   0  0  0  0  0  0  0  0  0  0  0  0
   -4.5864    0.1364    1.5473 H   0  0  0  0  0  0  0  0  0  0  0  0
   -3.7719    0.4758    3.1275 H   0  0  0  0  0  0  0  0  0  0  0  0
   -4.6076   -1.1005    2.8293 H   0  0  0  0  0  0  0  0  0  0  0  0
   -1.6613   -0.7710    3.6834 H   0  0  0  0  0  0  0  0  0  0  0  0
   -1.0937   -2.0476    2.5296 H   0  0  0  0  0  0  0  0  0  0  0  0
   -2.6139   -2.2927    3.4336 H   0  0  0  0  0  0  0  0  0  0  0  0
    2.1444    3.0694   -2.7751 H   0  0  0  0  0  0  0  0  0  0  0  0
    3.4064    0.9270   -2.9150 H   0  0  0  0  0  0  0  0  0  0  0  0
  1  2  1  0
  2  3  1  0
  3  4  2  0
  3  5  2  0
  3  6  1  0
  6  7  1  0
  7  8  2  0
  8  9  1  0
  9 10  2  0
 10 11  1  0
 11 12  1  0
 12 13  2  0
 13 14  1  0
 14 15  1  0
 15 16  1  0
 16 17  1  0
 16 18  1  0
 10 19  1  0
 19 20  2  0
 20  7  1  0
 13  9  1  0
  1 21  1  0
  1 22  1  0
  1 23  1  0
  2 24  1  0
  6 25  1  0
  6 26  1  0
  8 27  1  0
 11 28  1  0
 12 29  1  0
 14 30  1  0
 14 31  1  0
 15 32  1  0
 15 33  1  0
 17 34  1  0
 17 35  1  0
 17 36  1  0
 18 37  1  0
 18 38  1  0
 18 39  1  0
 19 40  1  0
 20 41  1  0
M  END
$$$$
