
     RDKit          3D

 31 31  0  0  0  0  0  0  0  0999 V2000
    1.9479   -0.1931   -0.9858 C   0  0  1  0  0  0  0  0  0  0  0  0
    2.2441   -0.4810   -2.3912 N   0  0  0  0  0  0  0  0  0  0  0  0
    0.9084   -1.1995   -0.4538 C   0  0  0  0  0  0  0  0  0  0  0  0
    0.3272   -0.7681    0.8684 C   0  0  0  0  0  0  0  0  0  0  0  0
   -0.8225   -0.0305    1.1654 C   0  0  0  0  0  0  0  0  0  0  0  0
   -0.8745    0.1121    2.4765 O   0  0  0  0  0  0  0  0  0  0  0  0
    0.1331   -0.4556    3.0726 N   0  0  0  0  0  0  0  0  0  0  0  0
    0.8850   -1.0038    2.1068 C   0  0  0  0  0  0  0  0  0  0  0  0
    2.0542   -1.7126    2.3520 O   0  0  0  0  0  1  0  0  0  0  0  0
   -1.9105    0.5026    0.2367 C   0  0  0  0  0  0  0  0  0  0  0  0
   -1.3114    1.3256   -0.9211 C   0  0  0  0  0  0  0  0  0  0  0  0
   -2.8542    1.4277    1.0377 C   0  0  0  0  0  0  0  0  0  0  0  0
   -2.7410   -0.6704   -0.3177 C   0  0  0  0  0  0  0  0  0  0  0  0
    3.2088   -0.2111   -0.1598 C   0  0  0  0  0  0  0  0  0  0  0  0
    3.5198    0.8783    0.6480 O   0  0  0  0  0  0  0  0  0  0  0  0
    3.9711   -1.2152   -0.1789 O   0  0  0  0  0  0  0  0  0  0  0  0
    1.5165    0.8294   -0.9328 H   0  0  0  0  0  0  0  0  0  0  0  0
    2.6993   -1.4201   -2.4692 H   0  0  0  0  0  0  0  0  0  0  0  0
    2.9257    0.2301   -2.7444 H   0  0  0  0  0  0  0  0  0  0  0  0
    1.3803   -2.1995   -0.3353 H   0  0  0  0  0  0  0  0  0  0  0  0
    0.1020   -1.3340   -1.1983 H   0  0  0  0  0  0  0  0  0  0  0  0
   -0.6073    2.0916   -0.5304 H   0  0  0  0  0  0  0  0  0  0  0  0
   -2.1138    1.8492   -1.4846 H   0  0  0  0  0  0  0  0  0  0  0  0
   -0.7811    0.6860   -1.6517 H   0  0  0  0  0  0  0  0  0  0  0  0
   -3.6620    1.8300    0.3883 H   0  0  0  0  0  0  0  0  0  0  0  0
   -3.3349    0.8752    1.8742 H   0  0  0  0  0  0  0  0  0  0  0  0
   -2.2909    2.2871    1.4626 H   0  0  0  0  0  0  0  0  0  0  0  0
   -2.1231   -1.3547   -0.9315 H   0  0  0  0  0  0  0  0  0  0  0  0
   -3.5681   -0.2945   -0.9582 H   0  0  0  0  0  0  0  0  0  0  0  0
   -3.1840   -1.2603    0.5139 H   0  0  0  0  0  0  0  0  0  0  0  0
    4.3559    0.8791    1.2198 H   0  0  0  0  0  0  0  0  0  0  0  0
  1  2  1  0
  1  3  1  0
  3  4  1  0
  4  5  2  0
  5  6  1  0
  6  7  1  0
  7  8  2  0
  8  9  1  0
  5 10  1  0
 10 11  1  0
 10 12  1  0
 10 13  1  0
  1 14  1  0
 14 15  1  0
 14 16  2  0
  8  4  1  0
  1 17  1  6
  2 18  1  0
  2 19  1  0
  3 20  1  0
  3 21  1  0
 11 22  1  0
 11 23  1  0
 11 24  1  0
 12 25  1  0
 12 26  1  0
 12 27  1  0
 13 28  1  0
 13 29  1  0
 13 30  1  0
 15 31  1  0
M  CHG  1   9  -1
M  END
$$$$
