
     RDKit          3D

 22 21  0  0  0  0  0  0  0  0999 V2000
    0.4628   -1.6819   -0.8664 O   0  0  0  0  0  0  0  0  0  0  0  0
    0.1799   -0.0146   -0.7676 P   0  0  0  0  0  5  0  0  0  0  0  0
    0.7591    0.6653   -1.9880 O   0  0  0  0  0  0  0  0  0  0  0  0
   -1.5527    0.2862   -0.7225 N   0  0  0  0  0  0  0  0  0  0  0  0
   -2.1412   -0.4327    0.4104 C   0  0  0  0  0  0  0  0  0  0  0  0
   -3.6273   -0.1036    0.5338 C   0  0  0  0  0  0  0  0  0  0  0  0
   -3.8654    1.6265    0.8963 Cl  0  0  0  0  0  0  0  0  0  0  0  0
    0.9188    0.6507    0.6897 N   0  0  0  0  0  0  0  0  0  0  0  0
    2.2504    0.0813    0.9383 C   0  0  0  0  0  0  0  0  0  0  0  0
    3.3206    0.6392   -0.0078 C   0  0  0  0  0  0  0  0  0  0  0  0
    4.9300    0.0507    0.4793 Cl  0  0  0  0  0  0  0  0  0  0  0  0
   -0.0030   -1.9699   -1.6915 H   0  0  0  0  0  0  0  0  0  0  0  0
   -1.9497   -0.1134   -1.6042 H   0  0  0  0  0  0  0  0  0  0  0  0
   -2.0295   -1.5315    0.2703 H   0  0  0  0  0  0  0  0  0  0  0  0
   -1.6365   -0.1426    1.3585 H   0  0  0  0  0  0  0  0  0  0  0  0
   -4.1563   -0.3573   -0.4093 H   0  0  0  0  0  0  0  0  0  0  0  0
   -4.0703   -0.7018    1.3579 H   0  0  0  0  0  0  0  0  0  0  0  0
    0.9879    1.6883    0.5783 H   0  0  0  0  0  0  0  0  0  0  0  0
    2.2231   -1.0280    0.8769 H   0  0  0  0  0  0  0  0  0  0  0  0
    2.5392    0.3350    1.9809 H   0  0  0  0  0  0  0  0  0  0  0  0
    3.3254    1.7492    0.0254 H   0  0  0  0  0  0  0  0  0  0  0  0
    3.1347    0.3050   -1.0484 H   0  0  0  0  0  0  0  0  0  0  0  0
  1  2  1  0
  2  3  2  0
  2  4  1  0
  4  5  1  0
  5  6  1  0
  6  7  1  0
  2  8  1  0
  8  9  1  0
  9 10  1  0
 10 11  1  0
  1 12  1  0
  4 13  1  0
  5 14  1  0
  5 15  1  0
  6 16  1  0
  6 17  1  0
  8 18  1  0
  9 19  1  0
  9 20  1  0
 10 21  1  0
 10 22  1  0
M  END
$$$$
