
     RDKit          3D

 20 19  0  0  0  0  0  0  0  0999 V2000
   -1.0802   -1.5253   -0.3994 C   0  0  0  0  0  0  0  0  0  0  0  0
   -0.1008   -0.4227   -0.4473 N   0  0  0  0  0  0  0  0  0  0  0  0
    1.1697   -0.8448    0.1805 C   0  0  0  0  0  0  0  0  0  0  0  0
    2.3094   -0.0300   -0.3468 C   0  0  0  0  0  0  0  0  0  0  0  0
    2.9913    0.8401    0.4979 O   0  0  0  0  0  0  0  0  0  0  0  0
    2.6439   -0.1244   -1.5580 O   0  0  0  0  0  0  0  0  0  0  0  0
   -0.6081    0.8474    0.1445 C   0  0  0  0  0  0  0  0  0  0  0  0
   -1.5605    1.5074   -0.7549 N   0  0  0  0  0  0  0  0  0  0  0  0
   -1.2008    0.6389    1.4724 N   0  0  0  0  0  0  0  0  0  0  0  0
   -2.0504   -1.2220   -0.8401 H   0  0  0  0  0  0  0  0  0  0  0  0
   -0.7131   -2.3787   -1.0088 H   0  0  0  0  0  0  0  0  0  0  0  0
   -1.2405   -1.8809    0.6422 H   0  0  0  0  0  0  0  0  0  0  0  0
    1.3960   -1.9092   -0.0549 H   0  0  0  0  0  0  0  0  0  0  0  0
    1.1166   -0.7577    1.2890 H   0  0  0  0  0  0  0  0  0  0  0  0
    3.7605    1.4022    0.1534 H   0  0  0  0  0  0  0  0  0  0  0  0
    0.2441    1.5543    0.2647 H   0  0  0  0  0  0  0  0  0  0  0  0
   -2.4481    0.9610   -0.8164 H   0  0  0  0  0  0  0  0  0  0  0  0
   -1.1437    1.5412   -1.7136 H   0  0  0  0  0  0  0  0  0  0  0  0
   -1.3280    1.5749    1.9215 H   0  0  0  0  0  0  0  0  0  0  0  0
   -2.1574    0.2283    1.3741 H   0  0  0  0  0  0  0  0  0  0  0  0
  1  2  1  0
  2  3  1  0
  3  4  1  0
  4  5  1  0
  4  6  2  0
  2  7  1  0
  7  8  1  0
  7  9  1  0
  1 10  1  0
  1 11  1  0
  1 12  1  0
  3 13  1  0
  3 14  1  0
  5 15  1  0
  7 16  1  0
  8 17  1  0
  8 18  1  0
  9 19  1  0
  9 20  1  0
M  END
$$$$
