
     RDKit          3D

 37 38  0  0  0  0  0  0  0  0999 V2000
   -5.2968    0.2934    1.6712 N   0  0  0  0  0  0  0  0  0  0  0  0
   -5.6571    0.0248    0.3096 C   0  0  0  0  0  0  0  0  0  0  0  0
   -7.0372   -0.0231   -0.0514 N   0  0  0  0  0  0  0  0  0  0  0  0
   -4.7568   -0.1772   -0.6086 N   0  0  0  0  0  0  0  0  0  0  0  0
   -3.3132   -0.1597   -0.3924 C   0  0  0  0  0  0  0  0  0  0  0  0
   -2.5963   -0.4394   -1.7119 C   0  0  0  0  0  0  0  0  0  0  0  0
   -1.1036   -0.4274   -1.5180 C   0  0  0  0  0  0  0  0  0  0  0  0
   -0.3834    0.7711   -1.6391 C   0  0  0  0  0  0  0  0  0  0  0  0
    0.9982    0.7895   -1.4261 C   0  0  0  0  0  0  0  0  0  0  0  0
    1.6761   -0.3888   -1.0772 C   0  0  0  0  0  0  0  0  0  0  0  0
    0.9551   -1.5858   -0.9463 C   0  0  0  0  0  0  0  0  0  0  0  0
   -0.4265   -1.6033   -1.1595 C   0  0  0  0  0  0  0  0  0  0  0  0
    3.2334   -0.3681   -0.8355 B   0  0  0  0  0  0  0  0  0  0  0  0
    3.8465   -1.4598   -0.1000 O   0  0  0  0  0  0  0  0  0  0  0  0
    4.2492   -0.7911    1.0628 C   0  0  0  0  0  0  0  0  0  0  0  0
    4.2760    0.7270    0.7566 C   0  0  1  0  0  0  0  0  0  0  0  0
    5.6598    1.3468    0.9817 C   0  0  0  0  0  0  0  0  0  0  0  0
    6.5970    0.7757    0.1099 O   0  0  0  0  0  0  0  0  0  0  0  0
    3.8890    0.9025   -0.5797 O   0  0  0  0  0  0  0  0  0  0  0  0
   -4.3041    0.3395    1.9889 H   0  0  0  0  0  0  0  0  0  0  0  0
   -6.0423    0.4511    2.3847 H   0  0  0  0  0  0  0  0  0  0  0  0
   -7.3215   -0.2172   -1.0375 H   0  0  0  0  0  0  0  0  0  0  0  0
   -7.7792    0.1353    0.6656 H   0  0  0  0  0  0  0  0  0  0  0  0
   -3.0389   -0.9417    0.3498 H   0  0  0  0  0  0  0  0  0  0  0  0
   -3.0065    0.8389   -0.0100 H   0  0  0  0  0  0  0  0  0  0  0  0
   -2.9189   -1.4277   -2.1076 H   0  0  0  0  0  0  0  0  0  0  0  0
   -2.8870    0.3282   -2.4625 H   0  0  0  0  0  0  0  0  0  0  0  0
   -0.8923    1.6916   -1.8972 H   0  0  0  0  0  0  0  0  0  0  0  0
    1.5327    1.7259   -1.5313 H   0  0  0  0  0  0  0  0  0  0  0  0
    1.4559   -2.5077   -0.6762 H   0  0  0  0  0  0  0  0  0  0  0  0
   -0.9690   -2.5335   -1.0437 H   0  0  0  0  0  0  0  0  0  0  0  0
    5.2462   -1.1740    1.3717 H   0  0  0  0  0  0  0  0  0  0  0  0
    3.5314   -1.0090    1.8859 H   0  0  0  0  0  0  0  0  0  0  0  0
    3.5483    1.2528    1.4179 H   0  0  0  0  0  0  0  0  0  0  0  0
    5.9726    1.1829    2.0374 H   0  0  0  0  0  0  0  0  0  0  0  0
    5.5994    2.4429    0.7982 H   0  0  0  0  0  0  0  0  0  0  0  0
    7.4637    1.2146    0.3125 H   0  0  0  0  0  0  0  0  0  0  0  0
  1  2  1  0
  2  3  1  0
  2  4  2  3
  4  5  1  0
  5  6  1  0
  6  7  1  0
  7  8  2  0
  8  9  1  0
  9 10  2  0
 10 11  1  0
 11 12  2  0
 10 13  1  0
 13 14  1  0
 14 15  1  0
 15 16  1  0
 16 17  1  0
 17 18  1  0
 16 19  1  0
 12  7  1  0
 19 13  1  0
  1 20  1  0
  1 21  1  0
  3 22  1  0
  3 23  1  0
  5 24  1  0
  5 25  1  0
  6 26  1  0
  6 27  1  0
  8 28  1  0
  9 29  1  0
 11 30  1  0
 12 31  1  0
 15 32  1  0
 15 33  1  0
 16 34  1  1
 17 35  1  0
 17 36  1  0
 18 37  1  0
M  END
$$$$
