
     RDKit          3D

 77 80  0  0  0  0  0  0  0  0999 V2000
   -1.7806    1.2184   -1.3493 C   0  0  0  0  0  0  0  0  0  0  0  0
   -1.8422    0.5628    0.0681 C   0  0  2  0  0  0  0  0  0  0  0  0
   -2.2536   -0.9204   -0.0501 C   0  0  0  0  0  0  0  0  0  0  0  0
   -3.7165   -1.0634   -0.5355 C   0  0  0  0  0  0  0  0  0  0  0  0
   -4.7381   -0.2355    0.3123 C   0  0  1  0  0  0  0  0  0  0  0  0
   -4.2721    1.2527    0.4964 C   0  0  1  0  0  0  0  0  0  0  0  0
   -5.2093    1.9923    1.4706 C   0  0  0  0  0  0  0  0  0  0  0  0
   -6.6499    1.9769    0.9638 C   0  0  0  0  0  0  0  0  0  0  0  0
   -7.0946    0.5557    0.7213 C   0  0  0  0  0  0  0  0  0  0  0  0
   -8.2435    0.1272    1.2691 C   0  0  0  0  0  0  0  0  0  0  0  0
   -8.6776   -1.2601    1.1148 C   0  0  0  0  0  0  0  0  0  0  0  0
   -9.7713   -1.6415    1.6085 O   0  0  0  0  0  0  0  0  0  0  0  0
   -7.8218   -2.2065    0.4053 C   0  0  0  0  0  0  0  0  0  0  0  0
   -6.6829   -1.8006   -0.1572 C   0  0  0  0  0  0  0  0  0  0  0  0
   -6.2299   -0.3385   -0.1866 C   0  0  2  0  0  0  0  0  0  0  0  0
   -6.4000    0.1478   -1.6445 C   0  0  0  0  0  0  0  0  0  0  0  0
   -2.8244    1.2439    1.0295 C   0  0  2  0  0  0  0  0  0  0  0  0
   -2.1576    2.5649    1.3885 C   0  0  0  0  0  0  0  0  0  0  0  0
   -0.6553    2.2349    1.3908 C   0  0  0  0  0  0  0  0  0  0  0  0
   -0.5102    0.8127    0.8095 C   0  0  2  0  0  0  0  0  0  0  0  0
    0.6320    0.7388   -0.0468 O   0  0  0  0  0  0  0  0  0  0  0  0
    1.2670   -0.4602   -0.3866 C   0  0  0  0  0  0  0  0  0  0  0  0
    0.9190   -1.5499    0.1443 O   0  0  0  0  0  0  0  0  0  0  0  0
    2.4002   -0.4375   -1.3647 C   0  0  0  0  0  0  0  0  0  0  0  0
    3.6459    0.2355   -0.7740 C   0  0  0  0  0  0  0  0  0  0  0  0
    4.2917   -0.6120    0.3354 C   0  0  0  0  0  0  0  0  0  0  0  0
    5.4560    0.1084    1.0392 C   0  0  0  0  0  0  0  0  0  0  0  0
    6.6446    0.4687    0.1296 C   0  0  0  0  0  0  0  0  0  0  0  0
    7.3066   -0.7618   -0.5075 C   0  0  0  0  0  0  0  0  0  0  0  0
    8.5964   -0.3718   -1.2448 C   0  0  0  0  0  0  0  0  0  0  0  0
    9.2434   -1.5707   -1.9544 C   0  0  0  0  0  0  0  0  0  0  0  0
    9.7389   -2.6118   -0.9861 C   0  0  0  0  0  0  0  0  0  0  0  0
   10.7908   -2.3913   -0.1922 C   0  0  0  0  0  0  0  0  0  0  0  0
   -1.4580    2.2788   -1.2994 H   0  0  0  0  0  0  0  0  0  0  0  0
   -1.0512    0.6764   -1.9880 H   0  0  0  0  0  0  0  0  0  0  0  0
   -2.7477    1.1918   -1.8848 H   0  0  0  0  0  0  0  0  0  0  0  0
   -2.1519   -1.4263    0.9356 H   0  0  0  0  0  0  0  0  0  0  0  0
   -1.5840   -1.4472   -0.7632 H   0  0  0  0  0  0  0  0  0  0  0  0
   -3.7732   -0.7805   -1.6044 H   0  0  0  0  0  0  0  0  0  0  0  0
   -3.9628   -2.1425   -0.4764 H   0  0  0  0  0  0  0  0  0  0  0  0
   -4.7237   -0.6995    1.3266 H   0  0  0  0  0  0  0  0  0  0  0  0
   -4.3038    1.7983   -0.4666 H   0  0  0  0  0  0  0  0  0  0  0  0
   -4.8888    3.0514    1.5739 H   0  0  0  0  0  0  0  0  0  0  0  0
   -5.1671    1.5207    2.4778 H   0  0  0  0  0  0  0  0  0  0  0  0
   -7.2919    2.4877    1.7150 H   0  0  0  0  0  0  0  0  0  0  0  0
   -6.7246    2.5562    0.0191 H   0  0  0  0  0  0  0  0  0  0  0  0
   -8.8529    0.7941    1.8679 H   0  0  0  0  0  0  0  0  0  0  0  0
   -8.1170   -3.2461    0.3327 H   0  0  0  0  0  0  0  0  0  0  0  0
   -6.1224   -2.5385   -0.7148 H   0  0  0  0  0  0  0  0  0  0  0  0
   -5.8921   -0.5303   -2.3616 H   0  0  0  0  0  0  0  0  0  0  0  0
   -7.4781    0.1630   -1.9162 H   0  0  0  0  0  0  0  0  0  0  0  0
   -6.0029    1.1707   -1.7953 H   0  0  0  0  0  0  0  0  0  0  0  0
   -2.8463    0.6584    1.9827 H   0  0  0  0  0  0  0  0  0  0  0  0
   -2.4883    2.9238    2.3876 H   0  0  0  0  0  0  0  0  0  0  0  0
   -2.3883    3.3411    0.6265 H   0  0  0  0  0  0  0  0  0  0  0  0
   -0.2484    2.2695    2.4251 H   0  0  0  0  0  0  0  0  0  0  0  0
   -0.1074    2.9771    0.7696 H   0  0  0  0  0  0  0  0  0  0  0  0
   -0.3948    0.1011    1.6600 H   0  0  0  0  0  0  0  0  0  0  0  0
    2.0744    0.1326   -2.2610 H   0  0  0  0  0  0  0  0  0  0  0  0
    2.6462   -1.4704   -1.6959 H   0  0  0  0  0  0  0  0  0  0  0  0
    3.3782    1.2410   -0.3806 H   0  0  0  0  0  0  0  0  0  0  0  0
    4.3753    0.3739   -1.5999 H   0  0  0  0  0  0  0  0  0  0  0  0
    4.6329   -1.5845   -0.0781 H   0  0  0  0  0  0  0  0  0  0  0  0
    3.5286   -0.8403    1.1104 H   0  0  0  0  0  0  0  0  0  0  0  0
    5.8216   -0.5374    1.8672 H   0  0  0  0  0  0  0  0  0  0  0  0
    5.0711    1.0422    1.5042 H   0  0  0  0  0  0  0  0  0  0  0  0
    7.3969    0.9970    0.7557 H   0  0  0  0  0  0  0  0  0  0  0  0
    6.3240    1.1806   -0.6601 H   0  0  0  0  0  0  0  0  0  0  0  0
    6.6064   -1.2256   -1.2347 H   0  0  0  0  0  0  0  0  0  0  0  0
    7.5421   -1.5042    0.2860 H   0  0  0  0  0  0  0  0  0  0  0  0
    8.3560    0.3967   -2.0117 H   0  0  0  0  0  0  0  0  0  0  0  0
    9.3199    0.0793   -0.5310 H   0  0  0  0  0  0  0  0  0  0  0  0
    8.5039   -2.0353   -2.6419 H   0  0  0  0  0  0  0  0  0  0  0  0
   10.0945   -1.2150   -2.5749 H   0  0  0  0  0  0  0  0  0  0  0  0
    9.2434   -3.5776   -0.9524 H   0  0  0  0  0  0  0  0  0  0  0  0
   11.3202   -1.4437   -0.2155 H   0  0  0  0  0  0  0  0  0  0  0  0
   11.1305   -3.1668    0.4865 H   0  0  0  0  0  0  0  0  0  0  0  0
  2  1  1  6
  2  3  1  0
  3  4  1  0
  4  5  1  0
  5  6  1  0
  6  7  1  0
  7  8  1  0
  8  9  1  0
  9 10  2  0
 10 11  1  0
 11 12  2  0
 11 13  1  0
 13 14  2  0
 14 15  1  0
 15 16  1  6
  6 17  1  0
 17 18  1  0
 18 19  1  0
 19 20  1  0
 20 21  1  0
 21 22  1  0
 22 23  2  0
 22 24  1  0
 24 25  1  0
 25 26  1  0
 26 27  1  0
 27 28  1  0
 28 29  1  0
 29 30  1  0
 30 31  1  0
 31 32  1  0
 32 33  2  3
 17  2  1  0
 20  2  1  0
 15  5  1  0
 15  9  1  0
  1 34  1  0
  1 35  1  0
  1 36  1  0
  3 37  1  0
  3 38  1  0
  4 39  1  0
  4 40  1  0
  5 41  1  1
  6 42  1  6
  7 43  1  0
  7 44  1  0
  8 45  1  0
  8 46  1  0
 10 47  1  0
 13 48  1  0
 14 49  1  0
 16 50  1  0
 16 51  1  0
 16 52  1  0
 17 53  1  1
 18 54  1  0
 18 55  1  0
 19 56  1  0
 19 57  1  0
 20 58  1  1
 24 59  1  0
 24 60  1  0
 25 61  1  0
 25 62  1  0
 26 63  1  0
 26 64  1  0
 27 65  1  0
 27 66  1  0
 28 67  1  0
 28 68  1  0
 29 69  1  0
 29 70  1  0
 30 71  1  0
 30 72  1  0
 31 73  1  0
 31 74  1  0
 32 75  1  0
 33 76  1  0
 33 77  1  0
M  END
$$$$
