
     RDKit          3D

 47 50  0  0  0  0  0  0  0  0999 V2000
    1.8312    0.5378   -1.7639 C   0  0  2  0  0  0  0  0  0  0  0  0
    0.7397    1.5966   -1.6005 C   0  0  0  0  0  0  0  0  0  0  0  0
   -0.5484    0.8462   -1.8235 C   0  0  2  0  0  0  0  0  0  0  0  0
   -1.2102    0.6578   -0.5859 O   0  0  0  0  0  0  0  0  0  0  0  0
   -2.3789   -0.1589   -0.7027 C   0  0  1  0  0  0  0  0  0  0  0  0
   -2.3157   -1.0878   -1.7857 O   0  0  0  0  0  0  0  0  0  0  0  0
   -1.0073   -1.5962   -1.9284 C   0  0  0  0  0  0  0  0  0  0  0  0
   -0.0816   -0.4802   -2.4021 C   0  0  2  0  0  0  0  0  0  0  0  0
    1.2360   -0.7233   -1.9743 O   0  0  0  0  0  0  0  0  0  0  0  0
   -2.5982   -0.9063    0.6074 C   0  0  0  0  0  0  0  0  0  0  0  0
   -2.1415   -0.3705    1.8296 C   0  0  0  0  0  0  0  0  0  0  0  0
   -2.3720   -1.0451    3.0319 C   0  0  0  0  0  0  0  0  0  0  0  0
   -3.0728   -2.2523    3.0354 C   0  0  0  0  0  0  0  0  0  0  0  0
   -3.5518   -2.7842    1.8371 C   0  0  0  0  0  0  0  0  0  0  0  0
   -3.3243   -2.1148    0.6313 C   0  0  0  0  0  0  0  0  0  0  0  0
   -3.8278    0.9270   -0.9672 P   0  0  0  0  0  5  0  0  0  0  0  0
   -3.8509    2.1390    0.2136 O   0  0  0  0  0  0  0  0  0  0  0  0
   -5.2546    0.0209   -0.8650 O   0  0  0  0  0  0  0  0  0  0  0  0
   -3.7504    1.5710   -2.3327 O   0  0  0  0  0  0  0  0  0  0  0  0
    2.7183    0.4996   -0.5819 N   0  0  0  0  0  0  0  0  0  0  0  0
    3.9545    1.0783   -0.6675 C   0  0  0  0  0  0  0  0  0  0  0  0
    4.8242    1.0813    0.4281 C   0  0  0  0  0  0  0  0  0  0  0  0
    6.1757    1.7336    0.3326 C   0  0  0  0  0  0  0  0  0  0  0  0
    4.3800    0.5050    1.6232 C   0  0  0  0  0  0  0  0  0  0  0  0
    5.1200    0.4997    2.6446 O   0  0  0  0  0  0  0  0  0  0  0  0
    3.1418   -0.0492    1.6870 N   0  0  0  0  0  0  0  0  0  0  0  0
    2.3120   -0.0539    0.6086 C   0  0  0  0  0  0  0  0  0  0  0  0
    1.1653   -0.5671    0.7217 O   0  0  0  0  0  0  0  0  0  0  0  0
    2.4196    0.7761   -2.6804 H   0  0  0  0  0  0  0  0  0  0  0  0
    0.7638    2.0798   -0.5981 H   0  0  0  0  0  0  0  0  0  0  0  0
    0.8610    2.3894   -2.3717 H   0  0  0  0  0  0  0  0  0  0  0  0
   -1.1974    1.3975   -2.5396 H   0  0  0  0  0  0  0  0  0  0  0  0
   -0.6461   -2.0409   -0.9724 H   0  0  0  0  0  0  0  0  0  0  0  0
   -1.0176   -2.4109   -2.6828 H   0  0  0  0  0  0  0  0  0  0  0  0
   -0.1017   -0.4265   -3.5146 H   0  0  0  0  0  0  0  0  0  0  0  0
   -1.6108    0.5725    1.8588 H   0  0  0  0  0  0  0  0  0  0  0  0
   -2.0111   -0.6279    3.9631 H   0  0  0  0  0  0  0  0  0  0  0  0
   -3.2517   -2.7716    3.9680 H   0  0  0  0  0  0  0  0  0  0  0  0
   -4.1049   -3.7146    1.8424 H   0  0  0  0  0  0  0  0  0  0  0  0
   -3.7190   -2.5410   -0.2821 H   0  0  0  0  0  0  0  0  0  0  0  0
   -4.1683    1.6869    1.0355 H   0  0  0  0  0  0  0  0  0  0  0  0
   -5.1880   -0.6424   -1.5976 H   0  0  0  0  0  0  0  0  0  0  0  0
    4.2742    1.5445   -1.5928 H   0  0  0  0  0  0  0  0  0  0  0  0
    6.1680    2.6864    0.9022 H   0  0  0  0  0  0  0  0  0  0  0  0
    6.9533    1.0627    0.7550 H   0  0  0  0  0  0  0  0  0  0  0  0
    6.4471    1.9509   -0.7225 H   0  0  0  0  0  0  0  0  0  0  0  0
    2.8171   -0.4750    2.5856 H   0  0  0  0  0  0  0  0  0  0  0  0
  1  2  1  0
  2  3  1  0
  3  4  1  0
  4  5  1  0
  5  6  1  0
  6  7  1  0
  7  8  1  0
  8  9  1  0
  5 10  1  0
 10 11  2  0
 11 12  1  0
 12 13  2  0
 13 14  1  0
 14 15  2  0
  5 16  1  6
 16 17  1  0
 16 18  1  0
 16 19  2  0
  1 20  1  0
 20 21  1  0
 21 22  2  0
 22 23  1  0
 22 24  1  0
 24 25  2  0
 24 26  1  0
 26 27  1  0
 27 28  2  0
  9  1  1  0
 15 10  1  0
 27 20  1  0
  8  3  1  0
  1 29  1  6
  2 30  1  0
  2 31  1  0
  3 32  1  6
  7 33  1  0
  7 34  1  0
  8 35  1  6
 11 36  1  0
 12 37  1  0
 13 38  1  0
 14 39  1  0
 15 40  1  0
 17 41  1  0
 18 42  1  0
 21 43  1  0
 23 44  1  0
 23 45  1  0
 23 46  1  0
 26 47  1  0
M  END
$$$$
