
     RDKit          3D

 32 34  0  0  0  0  0  0  0  0999 V2000
    2.6279    4.4287   -0.8429 O   0  0  0  0  0  1  0  0  0  0  0  0
    1.5835    3.5380   -0.9422 N   0  0  0  0  0  4  0  0  0  0  0  0
    0.5019    3.9322   -1.4259 O   0  0  0  0  0  0  0  0  0  0  0  0
    1.7371    2.1777   -0.4961 C   0  0  0  0  0  0  0  0  0  0  0  0
    0.6733    1.2653   -0.5948 C   0  0  0  0  0  0  0  0  0  0  0  0
    0.8093   -0.0675   -0.1597 C   0  0  0  0  0  0  0  0  0  0  0  0
    2.0558   -0.4939    0.3696 C   0  0  0  0  0  0  0  0  0  0  0  0
    2.2778   -1.8344    0.8412 N   0  0  0  0  0  0  0  0  0  0  0  0
    1.7991   -2.9979    0.1590 C   0  0  0  0  0  0  0  0  0  0  0  0
    2.1353   -4.1419    0.5664 O   0  0  0  0  0  0  0  0  0  0  0  0
    0.9013   -2.8692   -1.0261 C   0  0  0  0  0  0  0  0  0  0  0  0
   -0.3207   -2.1879   -0.6260 N   0  0  0  0  0  0  0  0  0  0  0  0
   -0.3916   -0.9555   -0.2113 C   0  0  0  0  0  0  0  0  0  0  0  0
   -1.7308   -0.4139    0.1232 C   0  0  0  0  0  0  0  0  0  0  0  0
   -2.7924   -0.6143   -0.7774 C   0  0  0  0  0  0  0  0  0  0  0  0
   -4.0619   -0.0995   -0.5041 C   0  0  0  0  0  0  0  0  0  0  0  0
   -4.2889    0.6136    0.6734 C   0  0  0  0  0  0  0  0  0  0  0  0
   -3.2493    0.8069    1.5851 C   0  0  0  0  0  0  0  0  0  0  0  0
   -1.9719    0.2958    1.3228 C   0  0  0  0  0  0  0  0  0  0  0  0
   -0.7282    0.5081    2.5518 Cl  0  0  0  0  0  0  0  0  0  0  0  0
    3.1045    0.4293    0.4850 C   0  0  0  0  0  0  0  0  0  0  0  0
    2.9514    1.7462    0.0537 C   0  0  0  0  0  0  0  0  0  0  0  0
   -0.2713    1.5946   -1.0100 H   0  0  0  0  0  0  0  0  0  0  0  0
    2.9736   -1.9804    1.6077 H   0  0  0  0  0  0  0  0  0  0  0  0
    0.6393   -3.8745   -1.4189 H   0  0  0  0  0  0  0  0  0  0  0  0
    1.4114   -2.3028   -1.8350 H   0  0  0  0  0  0  0  0  0  0  0  0
   -2.6330   -1.1563   -1.7017 H   0  0  0  0  0  0  0  0  0  0  0  0
   -4.8701   -0.2521   -1.2077 H   0  0  0  0  0  0  0  0  0  0  0  0
   -5.2736    1.0107    0.8837 H   0  0  0  0  0  0  0  0  0  0  0  0
   -3.4405    1.3475    2.5035 H   0  0  0  0  0  0  0  0  0  0  0  0
    4.0546    0.1205    0.9032 H   0  0  0  0  0  0  0  0  0  0  0  0
    3.7870    2.4271    0.1507 H   0  0  0  0  0  0  0  0  0  0  0  0
  1  2  1  0
  2  3  2  0
  2  4  1  0
  4  5  2  0
  5  6  1  0
  6  7  2  0
  7  8  1  0
  8  9  1  0
  9 10  2  0
  9 11  1  0
 11 12  1  0
 12 13  2  0
 13 14  1  0
 14 15  2  0
 15 16  1  0
 16 17  2  0
 17 18  1  0
 18 19  2  0
 19 20  1  0
  7 21  1  0
 21 22  2  0
 22  4  1  0
 13  6  1  0
 19 14  1  0
  5 23  1  0
  8 24  1  0
 11 25  1  0
 11 26  1  0
 15 27  1  0
 16 28  1  0
 17 29  1  0
 18 30  1  0
 21 31  1  0
 22 32  1  0
M  CHG  2   1  -1   2   1
M  END
$$$$
