
     RDKit          3D

 34 35  0  0  0  0  0  0  0  0999 V2000
   -4.8121   -1.5233   -3.0238 N   0  0  0  0  0  0  0  0  0  0  0  0
   -5.0224   -0.2705   -1.8517 S   0  0  0  0  0  6  0  0  0  0  0  0
   -5.8738   -0.7741   -0.7196 O   0  0  0  0  0  0  0  0  0  0  0  0
   -5.7134    0.9019   -2.4899 O   0  0  0  0  0  0  0  0  0  0  0  0
   -3.4492    0.2259   -1.2372 C   0  0  0  0  0  0  0  0  0  0  0  0
   -2.7508    1.2741   -1.8484 C   0  0  0  0  0  0  0  0  0  0  0  0
   -1.4953    1.6583   -1.3684 C   0  0  0  0  0  0  0  0  0  0  0  0
   -0.9199    1.0009   -0.2660 C   0  0  0  0  0  0  0  0  0  0  0  0
   -1.6192   -0.0643    0.3304 C   0  0  0  0  0  0  0  0  0  0  0  0
   -2.8741   -0.4470   -0.1525 C   0  0  0  0  0  0  0  0  0  0  0  0
    0.4156    1.4118    0.2292 C   0  0  0  0  0  0  0  0  0  0  0  0
    1.2034    2.0194   -0.5467 O   0  0  0  0  0  0  0  0  0  0  0  0
    0.8201    1.1428    1.5816 N   0  0  0  0  0  0  0  0  0  0  0  0
    2.2000    1.3129    2.0308 C   0  0  0  0  0  0  0  0  0  0  0  0
    3.0708    0.2324    1.4504 C   0  0  0  0  0  0  0  0  0  0  0  0
    2.9497   -1.0893    1.9104 C   0  0  0  0  0  0  0  0  0  0  0  0
    3.7382   -2.1028    1.3568 C   0  0  0  0  0  0  0  0  0  0  0  0
    4.6478   -1.8051    0.3384 C   0  0  0  0  0  0  0  0  0  0  0  0
    4.7691   -0.4936   -0.1294 C   0  0  0  0  0  0  0  0  0  0  0  0
    3.9824    0.5229    0.4215 C   0  0  0  0  0  0  0  0  0  0  0  0
   -5.7663   -1.8329   -3.3149 H   0  0  0  0  0  0  0  0  0  0  0  0
   -4.3702   -2.3313   -2.5306 H   0  0  0  0  0  0  0  0  0  0  0  0
   -3.1752    1.7935   -2.6981 H   0  0  0  0  0  0  0  0  0  0  0  0
   -0.9780    2.4760   -1.8548 H   0  0  0  0  0  0  0  0  0  0  0  0
   -1.1909   -0.6222    1.1524 H   0  0  0  0  0  0  0  0  0  0  0  0
   -3.3927   -1.2746    0.3148 H   0  0  0  0  0  0  0  0  0  0  0  0
    0.1074    0.8594    2.2903 H   0  0  0  0  0  0  0  0  0  0  0  0
    2.2369    1.2486    3.1401 H   0  0  0  0  0  0  0  0  0  0  0  0
    2.5658    2.3251    1.7516 H   0  0  0  0  0  0  0  0  0  0  0  0
    2.2433   -1.3330    2.6945 H   0  0  0  0  0  0  0  0  0  0  0  0
    3.6422   -3.1194    1.7157 H   0  0  0  0  0  0  0  0  0  0  0  0
    5.2568   -2.5908   -0.0898 H   0  0  0  0  0  0  0  0  0  0  0  0
    5.4712   -0.2650   -0.9207 H   0  0  0  0  0  0  0  0  0  0  0  0
    4.0831    1.5332    0.0447 H   0  0  0  0  0  0  0  0  0  0  0  0
  1  2  1  0
  2  3  2  0
  2  4  2  0
  2  5  1  0
  5  6  2  0
  6  7  1  0
  7  8  2  0
  8  9  1  0
  9 10  2  0
  8 11  1  0
 11 12  2  0
 11 13  1  0
 13 14  1  0
 14 15  1  0
 15 16  2  0
 16 17  1  0
 17 18  2  0
 18 19  1  0
 19 20  2  0
 10  5  1  0
 20 15  1  0
  1 21  1  0
  1 22  1  0
  6 23  1  0
  7 24  1  0
  9 25  1  0
 10 26  1  0
 13 27  1  0
 14 28  1  0
 14 29  1  0
 16 30  1  0
 17 31  1  0
 18 32  1  0
 19 33  1  0
 20 34  1  0
M  END
$$$$
