
     RDKit          3D

 73 74  0  0  0  0  0  0  0  0999 V2000
    6.7810    2.3249   -2.8348 N   0  0  0  0  0  0  0  0  0  0  0  0
    8.1051    2.7882   -3.2419 C   0  0  0  0  0  0  0  0  0  0  0  0
    8.9867    1.6225   -3.5564 C   0  0  0  0  0  0  0  0  0  0  0  0
    9.9874    1.2477   -2.6656 O   0  0  0  0  0  0  0  0  0  0  0  0
    8.8067    0.9644   -4.6157 O   0  0  0  0  0  0  0  0  0  0  0  0
    6.5338    1.7526   -1.5393 C   0  0  0  0  0  0  0  0  0  0  0  0
    7.5021    1.5368   -0.7596 O   0  0  0  0  0  0  0  0  0  0  0  0
    5.1613    1.3935   -1.1071 C   0  0  0  0  0  0  0  0  0  0  0  0
    4.0352    2.0406   -1.6449 C   0  0  0  0  0  0  0  0  0  0  0  0
    2.7484    1.6938   -1.2232 C   0  0  0  0  0  0  0  0  0  0  0  0
    2.5586    0.7039   -0.2446 C   0  0  0  0  0  0  0  0  0  0  0  0
    3.6839    0.0563    0.2929 C   0  0  0  0  0  0  0  0  0  0  0  0
    4.9706    0.4031   -0.1286 C   0  0  0  0  0  0  0  0  0  0  0  0
    1.1888    0.3379    0.1857 C   0  0  0  0  0  0  0  0  0  0  0  0
    0.2196    0.5596   -0.5890 O   0  0  0  0  0  0  0  0  0  0  0  0
    0.9506   -0.2458    1.4774 N   0  0  0  0  0  0  0  0  0  0  0  0
   -0.2710   -0.9977    1.8025 C   0  0  1  0  0  0  0  0  0  0  0  0
    0.0169   -2.5235    1.8609 C   0  0  0  0  0  0  0  0  0  0  0  0
    1.1227   -2.8963    2.8627 C   0  0  0  0  0  0  0  0  0  0  0  0
    0.3635   -3.0678    0.4679 C   0  0  0  0  0  0  0  0  0  0  0  0
   -0.8687   -0.4953    3.1022 C   0  0  0  0  0  0  0  0  0  0  0  0
   -0.1015   -0.0362    3.9930 O   0  0  0  0  0  0  0  0  0  0  0  0
   -2.2843   -0.5725    3.3720 N   0  0  0  0  0  0  0  0  0  0  0  0
   -2.8388   -0.2337    4.6737 C   0  0  0  0  0  0  0  0  0  0  0  0
   -4.3445   -0.4239    4.5483 C   0  0  0  0  0  0  0  0  0  0  0  0
   -4.5469   -1.2849    3.3063 C   0  0  0  0  0  0  0  0  0  0  0  0
   -3.3017   -1.0641    2.4473 C   0  0  1  0  0  0  0  0  0  0  0  0
   -3.5798   -0.0592    1.3587 C   0  0  0  0  0  0  0  0  0  0  0  0
   -3.3604    1.1673    1.5584 O   0  0  0  0  0  0  0  0  0  0  0  0
   -4.1513   -0.4999    0.1187 N   0  0  0  0  0  0  0  0  0  0  0  0
   -4.3941    0.4099   -1.0065 C   0  0  1  0  0  0  0  0  0  0  0  0
   -3.0698    0.7056   -1.7656 C   0  0  0  0  0  0  0  0  0  0  0  0
   -3.2735    1.7314   -2.8889 C   0  0  0  0  0  0  0  0  0  0  0  0
   -2.3794   -0.5564   -2.3099 C   0  0  0  0  0  0  0  0  0  0  0  0
   -5.4924   -0.1451   -1.8962 C   0  0  0  0  0  0  0  0  0  0  0  0
   -5.3651   -1.2462   -2.4114 O   0  0  0  0  0  0  0  0  0  0  0  0
   -6.7715    0.6219   -2.0969 C   0  0  0  0  0  0  0  0  0  0  0  0
   -6.4906    1.8833   -2.5880 F   0  0  0  0  0  0  0  0  0  0  0  0
   -7.5958   -0.0336   -2.9950 F   0  0  0  0  0  0  0  0  0  0  0  0
   -7.4307    0.7413   -0.8876 F   0  0  0  0  0  0  0  0  0  0  0  0
    6.0134    2.3703   -3.5411 H   0  0  0  0  0  0  0  0  0  0  0  0
    8.5547    3.4103   -2.4382 H   0  0  0  0  0  0  0  0  0  0  0  0
    8.0116    3.4235   -4.1491 H   0  0  0  0  0  0  0  0  0  0  0  0
   10.5848    0.4530   -2.8598 H   0  0  0  0  0  0  0  0  0  0  0  0
    4.1415    2.8334   -2.3729 H   0  0  0  0  0  0  0  0  0  0  0  0
    1.9004    2.2137   -1.6520 H   0  0  0  0  0  0  0  0  0  0  0  0
    3.5755   -0.7365    1.0212 H   0  0  0  0  0  0  0  0  0  0  0  0
    5.8180   -0.1183    0.2994 H   0  0  0  0  0  0  0  0  0  0  0  0
    1.7032   -0.1817    2.1987 H   0  0  0  0  0  0  0  0  0  0  0  0
   -1.0223   -0.8275    1.0049 H   0  0  0  0  0  0  0  0  0  0  0  0
   -0.9092   -3.0427    2.1896 H   0  0  0  0  0  0  0  0  0  0  0  0
    0.8758   -2.5234    3.8780 H   0  0  0  0  0  0  0  0  0  0  0  0
    2.1045   -2.4827    2.5501 H   0  0  0  0  0  0  0  0  0  0  0  0
    1.2175   -4.0015    2.9250 H   0  0  0  0  0  0  0  0  0  0  0  0
    1.3098   -2.6224    0.0933 H   0  0  0  0  0  0  0  0  0  0  0  0
   -0.4518   -2.8362   -0.2500 H   0  0  0  0  0  0  0  0  0  0  0  0
    0.4823   -4.1717    0.5071 H   0  0  0  0  0  0  0  0  0  0  0  0
   -2.4256   -0.9200    5.4447 H   0  0  0  0  0  0  0  0  0  0  0  0
   -2.5976    0.8193    4.9358 H   0  0  0  0  0  0  0  0  0  0  0  0
   -4.8342    0.5633    4.3967 H   0  0  0  0  0  0  0  0  0  0  0  0
   -4.7706   -0.9098    5.4527 H   0  0  0  0  0  0  0  0  0  0  0  0
   -4.5957   -2.3537    3.6115 H   0  0  0  0  0  0  0  0  0  0  0  0
   -5.4937   -1.0258    2.7820 H   0  0  0  0  0  0  0  0  0  0  0  0
   -2.9865   -2.0301    1.9997 H   0  0  0  0  0  0  0  0  0  0  0  0
   -4.3511   -1.5201    0.0049 H   0  0  0  0  0  0  0  0  0  0  0  0
   -4.7613    1.3757   -0.5920 H   0  0  0  0  0  0  0  0  0  0  0  0
   -2.3711    1.1686   -1.0349 H   0  0  0  0  0  0  0  0  0  0  0  0
   -3.7410    2.6548   -2.4856 H   0  0  0  0  0  0  0  0  0  0  0  0
   -2.2941    2.0083   -3.3342 H   0  0  0  0  0  0  0  0  0  0  0  0
   -3.9219    1.3180   -3.6905 H   0  0  0  0  0  0  0  0  0  0  0  0
   -2.9671   -1.0169   -3.1301 H   0  0  0  0  0  0  0  0  0  0  0  0
   -1.3794   -0.2928   -2.7153 H   0  0  0  0  0  0  0  0  0  0  0  0
   -2.2299   -1.3029   -1.5022 H   0  0  0  0  0  0  0  0  0  0  0  0
  1  2  1  0
  2  3  1  0
  3  4  1  0
  3  5  2  0
  1  6  1  0
  6  7  2  0
  6  8  1  0
  8  9  2  0
  9 10  1  0
 10 11  2  0
 11 12  1  0
 12 13  2  0
 11 14  1  0
 14 15  2  0
 14 16  1  0
 16 17  1  0
 17 18  1  0
 18 19  1  0
 18 20  1  0
 17 21  1  0
 21 22  2  0
 21 23  1  0
 23 24  1  0
 24 25  1  0
 25 26  1  0
 26 27  1  0
 27 28  1  0
 28 29  2  0
 28 30  1  0
 30 31  1  0
 31 32  1  0
 32 33  1  0
 32 34  1  0
 31 35  1  0
 35 36  2  0
 35 37  1  0
 37 38  1  0
 37 39  1  0
 37 40  1  0
 13  8  1  0
 27 23  1  0
  1 41  1  0
  2 42  1  0
  2 43  1  0
  4 44  1  0
  9 45  1  0
 10 46  1  0
 12 47  1  0
 13 48  1  0
 16 49  1  0
 17 50  1  6
 18 51  1  0
 19 52  1  0
 19 53  1  0
 19 54  1  0
 20 55  1  0
 20 56  1  0
 20 57  1  0
 24 58  1  0
 24 59  1  0
 25 60  1  0
 25 61  1  0
 26 62  1  0
 26 63  1  0
 27 64  1  6
 30 65  1  0
 31 66  1  1
 32 67  1  0
 33 68  1  0
 33 69  1  0
 33 70  1  0
 34 71  1  0
 34 72  1  0
 34 73  1  0
M  END
$$$$
