
     RDKit          3D

 64 68  0  0  0  0  0  0  0  0999 V2000
   -0.7761    0.6558    1.2574 C   0  0  2  0  0  0  0  0  0  0  0  0
   -0.0707    1.7755    2.0105 C   0  0  0  0  0  0  0  0  0  0  0  0
    1.4040    1.6301    1.5985 C   0  0  0  0  0  0  0  0  0  0  0  0
    1.4481    0.5902    0.4595 C   0  0  2  0  0  0  0  0  0  0  0  0
    2.3884    0.9874   -0.5407 O   0  0  0  0  0  0  0  0  0  0  0  0
    2.9737    0.0983   -1.4478 C   0  0  0  0  0  0  0  0  0  0  0  0
    2.7421   -1.1396   -1.3818 O   0  0  0  0  0  0  0  0  0  0  0  0
    3.9229    0.6232   -2.4804 C   0  0  0  0  0  0  0  0  0  0  0  0
    5.1846    1.2129   -1.8383 C   0  0  0  0  0  0  0  0  0  0  0  0
    5.9777    0.1648   -1.0994 C   0  0  0  0  0  0  0  0  0  0  0  0
    5.8094   -0.0087    0.2852 C   0  0  0  0  0  0  0  0  0  0  0  0
    6.5200   -1.0051    0.9614 C   0  0  0  0  0  0  0  0  0  0  0  0
    7.3972   -1.8378    0.2611 C   0  0  0  0  0  0  0  0  0  0  0  0
    7.5627   -1.6777   -1.1175 C   0  0  0  0  0  0  0  0  0  0  0  0
    6.8533   -0.6831   -1.7979 C   0  0  0  0  0  0  0  0  0  0  0  0
   -0.0043    0.5293   -0.0620 C   0  0  2  0  0  0  0  0  0  0  0  0
   -0.2505    1.7064   -1.0597 C   0  0  0  0  0  0  0  0  0  0  0  0
   -0.4077   -0.8101   -0.7136 C   0  0  0  0  0  0  0  0  0  0  0  0
   -1.9381   -0.8948   -0.9309 C   0  0  0  0  0  0  0  0  0  0  0  0
   -2.7741   -0.5773    0.3481 C   0  0  2  0  0  0  0  0  0  0  0  0
   -4.3034   -0.5134    0.0494 C   0  0  1  0  0  0  0  0  0  0  0  0
   -4.8201   -1.8656   -0.5080 C   0  0  0  0  0  0  0  0  0  0  0  0
   -6.3401   -1.8676   -0.6702 C   0  0  0  0  0  0  0  0  0  0  0  0
   -6.9976   -1.4738    0.6131 C   0  0  0  0  0  0  0  0  0  0  0  0
   -8.1503   -1.9017    0.8863 O   0  0  0  0  0  0  0  0  0  0  0  0
   -6.3361   -0.5270    1.5201 C   0  0  0  0  0  0  0  0  0  0  0  0
   -5.0812   -0.0959    1.3005 C   0  0  0  0  0  0  0  0  0  0  0  0
   -4.5460    1.0248    2.1600 C   0  0  0  0  0  0  0  0  0  0  0  0
   -3.0401    0.8963    2.3850 C   0  0  0  0  0  0  0  0  0  0  0  0
   -2.3009    0.7366    1.0459 C   0  0  1  0  0  0  0  0  0  0  0  0
   -0.5931   -0.2673    1.8629 H   0  0  0  0  0  0  0  0  0  0  0  0
   -0.1904    1.6583    3.1097 H   0  0  0  0  0  0  0  0  0  0  0  0
   -0.4689    2.7671    1.7030 H   0  0  0  0  0  0  0  0  0  0  0  0
    1.7964    2.6128    1.2559 H   0  0  0  0  0  0  0  0  0  0  0  0
    2.0188    1.2835    2.4578 H   0  0  0  0  0  0  0  0  0  0  0  0
    1.7497   -0.3897    0.8977 H   0  0  0  0  0  0  0  0  0  0  0  0
    4.2034   -0.1846   -3.1916 H   0  0  0  0  0  0  0  0  0  0  0  0
    3.4075    1.4184   -3.0600 H   0  0  0  0  0  0  0  0  0  0  0  0
    5.8178    1.6582   -2.6363 H   0  0  0  0  0  0  0  0  0  0  0  0
    4.9053    2.0434   -1.1528 H   0  0  0  0  0  0  0  0  0  0  0  0
    5.1253    0.6231    0.8385 H   0  0  0  0  0  0  0  0  0  0  0  0
    6.3879   -1.1339    2.0279 H   0  0  0  0  0  0  0  0  0  0  0  0
    7.9456   -2.6093    0.7859 H   0  0  0  0  0  0  0  0  0  0  0  0
    8.2381   -2.3268   -1.6596 H   0  0  0  0  0  0  0  0  0  0  0  0
    6.9833   -0.5749   -2.8676 H   0  0  0  0  0  0  0  0  0  0  0  0
   -1.3057    1.7921   -1.3792 H   0  0  0  0  0  0  0  0  0  0  0  0
    0.0471    2.6834   -0.6264 H   0  0  0  0  0  0  0  0  0  0  0  0
    0.3467    1.5537   -1.9837 H   0  0  0  0  0  0  0  0  0  0  0  0
   -0.0906   -1.6599   -0.0692 H   0  0  0  0  0  0  0  0  0  0  0  0
    0.1028   -0.9287   -1.6932 H   0  0  0  0  0  0  0  0  0  0  0  0
   -2.2415   -0.2215   -1.7598 H   0  0  0  0  0  0  0  0  0  0  0  0
   -2.1528   -1.9310   -1.2654 H   0  0  0  0  0  0  0  0  0  0  0  0
   -2.6033   -1.4201    1.0575 H   0  0  0  0  0  0  0  0  0  0  0  0
   -4.4783    0.2680   -0.7237 H   0  0  0  0  0  0  0  0  0  0  0  0
   -4.5257   -2.6943    0.1739 H   0  0  0  0  0  0  0  0  0  0  0  0
   -4.3810   -2.0643   -1.5078 H   0  0  0  0  0  0  0  0  0  0  0  0
   -6.6765   -2.8828   -0.9735 H   0  0  0  0  0  0  0  0  0  0  0  0
   -6.6343   -1.1466   -1.4631 H   0  0  0  0  0  0  0  0  0  0  0  0
   -6.8953   -0.1662    2.3758 H   0  0  0  0  0  0  0  0  0  0  0  0
   -4.7634    1.9920    1.6569 H   0  0  0  0  0  0  0  0  0  0  0  0
   -5.0442    1.0404    3.1546 H   0  0  0  0  0  0  0  0  0  0  0  0
   -2.6894    1.8122    2.9075 H   0  0  0  0  0  0  0  0  0  0  0  0
   -2.8355    0.0249    3.0462 H   0  0  0  0  0  0  0  0  0  0  0  0
   -2.5524    1.6177    0.4188 H   0  0  0  0  0  0  0  0  0  0  0  0
  1  2  1  0
  2  3  1  0
  3  4  1  0
  4  5  1  0
  5  6  1  0
  6  7  2  0
  6  8  1  0
  8  9  1  0
  9 10  1  0
 10 11  2  0
 11 12  1  0
 12 13  2  0
 13 14  1  0
 14 15  2  0
  4 16  1  0
 16 17  1  6
 16 18  1  0
 18 19  1  0
 19 20  1  0
 20 21  1  0
 21 22  1  0
 22 23  1  0
 23 24  1  0
 24 25  2  0
 24 26  1  0
 26 27  2  0
 27 28  1  0
 28 29  1  0
 29 30  1  0
 16  1  1  0
 30 20  1  0
 30  1  1  0
 15 10  1  0
 27 21  1  0
  1 31  1  1
  2 32  1  0
  2 33  1  0
  3 34  1  0
  3 35  1  0
  4 36  1  1
  8 37  1  0
  8 38  1  0
  9 39  1  0
  9 40  1  0
 11 41  1  0
 12 42  1  0
 13 43  1  0
 14 44  1  0
 15 45  1  0
 17 46  1  0
 17 47  1  0
 17 48  1  0
 18 49  1  0
 18 50  1  0
 19 51  1  0
 19 52  1  0
 20 53  1  1
 21 54  1  6
 22 55  1  0
 22 56  1  0
 23 57  1  0
 23 58  1  0
 26 59  1  0
 28 60  1  0
 28 61  1  0
 29 62  1  0
 29 63  1  0
 30 64  1  6
M  END
$$$$
