
     RDKit          3D

 53 58  0  0  0  0  0  0  0  0999 V2000
   -2.8789   -4.1907   -0.6025 S   0  0  0  0  0  0  0  0  0  0  0  0
   -2.3308   -2.9901    0.3690 C   0  0  0  0  0  0  0  0  0  0  0  0
   -3.2460   -2.3218    1.2471 N   0  0  0  0  0  0  0  0  0  0  0  0
   -3.0993   -0.9077    1.5830 C   0  0  0  0  0  0  0  0  0  0  0  0
   -3.7682   -0.0656    0.5341 C   0  0  0  0  0  0  0  0  0  0  0  0
   -5.1662    0.1669    0.5935 C   0  0  0  0  0  0  0  0  0  0  0  0
   -5.8081    0.9187   -0.4077 C   0  0  0  0  0  0  0  0  0  0  0  0
   -5.0292    1.4095   -1.4510 C   0  0  0  0  0  0  0  0  0  0  0  0
   -5.4244    2.1616   -2.5403 O   0  0  0  0  0  0  0  0  0  0  0  0
   -4.2645    2.4211   -3.3437 C   0  0  0  0  0  0  0  0  0  0  0  0
   -3.1825    1.7769   -2.6566 O   0  0  0  0  0  0  0  0  0  0  0  0
   -3.6937    1.1809   -1.5200 C   0  0  0  0  0  0  0  0  0  0  0  0
   -3.0202    0.4438   -0.5508 C   0  0  0  0  0  0  0  0  0  0  0  0
   -0.9270   -2.6949    0.4103 N   0  0  0  0  0  0  0  0  0  0  0  0
   -0.2110   -2.3823   -0.8287 C   0  0  0  0  0  0  0  0  0  0  0  0
    0.8927   -1.3594   -0.5472 C   0  0  0  0  0  0  0  0  0  0  0  0
    1.7167   -1.7464    0.6115 N   0  0  0  0  0  0  0  0  0  0  0  0
    1.3284   -2.9060    1.4297 C   0  0  0  0  0  0  0  0  0  0  0  0
   -0.1879   -2.9288    1.6579 C   0  0  0  0  0  0  0  0  0  0  0  0
    2.9978   -1.1163    0.8381 C   0  0  0  0  0  0  0  0  0  0  0  0
    3.9787   -1.7724    1.5335 N   0  0  0  0  0  0  0  0  0  0  0  0
    5.2074   -1.2113    1.7692 C   0  0  0  0  0  0  0  0  0  0  0  0
    5.4976    0.0422    1.3126 N   0  0  0  0  0  0  0  0  0  0  0  0
    4.5373    0.7021    0.6259 C   0  0  0  0  0  0  0  0  0  0  0  0
    3.3009    0.1683    0.3767 C   0  0  0  0  0  0  0  0  0  0  0  0
    2.5517    1.0229   -0.2948 O   0  0  0  0  0  0  0  0  0  0  0  0
    3.2907    2.1013   -0.4852 C   0  0  0  0  0  0  0  0  0  0  0  0
    4.5446    1.9536    0.0721 C   0  0  0  0  0  0  0  0  0  0  0  0
    5.5105    2.9534    0.0109 C   0  0  0  0  0  0  0  0  0  0  0  0
    5.1666    4.1461   -0.6524 C   0  0  0  0  0  0  0  0  0  0  0  0
    3.8839    4.3047   -1.2274 C   0  0  0  0  0  0  0  0  0  0  0  0
    2.9289    3.2727   -1.1459 C   0  0  0  0  0  0  0  0  0  0  0  0
   -4.1835   -2.7553    1.4083 H   0  0  0  0  0  0  0  0  0  0  0  0
   -2.0291   -0.6276    1.6706 H   0  0  0  0  0  0  0  0  0  0  0  0
   -3.5647   -0.7181    2.5742 H   0  0  0  0  0  0  0  0  0  0  0  0
   -5.7521   -0.2361    1.4102 H   0  0  0  0  0  0  0  0  0  0  0  0
   -6.8732    1.1051   -0.3712 H   0  0  0  0  0  0  0  0  0  0  0  0
   -4.3924    1.9807   -4.3547 H   0  0  0  0  0  0  0  0  0  0  0  0
   -4.0803    3.5140   -3.4088 H   0  0  0  0  0  0  0  0  0  0  0  0
   -1.9560    0.2710   -0.6358 H   0  0  0  0  0  0  0  0  0  0  0  0
    0.2349   -3.3135   -1.2406 H   0  0  0  0  0  0  0  0  0  0  0  0
   -0.9083   -1.9629   -1.5871 H   0  0  0  0  0  0  0  0  0  0  0  0
    1.5309   -1.2725   -1.4534 H   0  0  0  0  0  0  0  0  0  0  0  0
    0.4207   -0.3750   -0.3438 H   0  0  0  0  0  0  0  0  0  0  0  0
    1.8269   -2.8751    2.4232 H   0  0  0  0  0  0  0  0  0  0  0  0
    1.6432   -3.8381    0.9124 H   0  0  0  0  0  0  0  0  0  0  0  0
   -0.4535   -2.1481    2.4004 H   0  0  0  0  0  0  0  0  0  0  0  0
   -0.4692   -3.9181    2.0803 H   0  0  0  0  0  0  0  0  0  0  0  0
    5.9526   -1.7661    2.3224 H   0  0  0  0  0  0  0  0  0  0  0  0
    6.4884    2.8204    0.4553 H   0  0  0  0  0  0  0  0  0  0  0  0
    5.8895    4.9483   -0.7227 H   0  0  0  0  0  0  0  0  0  0  0  0
    3.6337    5.2276   -1.7342 H   0  0  0  0  0  0  0  0  0  0  0  0
    1.9451    3.3863   -1.5821 H   0  0  0  0  0  0  0  0  0  0  0  0
  1  2  2  0
  2  3  1  0
  3  4  1  0
  4  5  1  0
  5  6  2  0
  6  7  1  0
  7  8  2  0
  8  9  1  0
  9 10  1  0
 10 11  1  0
 11 12  1  0
 12 13  2  0
  2 14  1  0
 14 15  1  0
 15 16  1  0
 16 17  1  0
 17 18  1  0
 18 19  1  0
 17 20  1  0
 20 21  2  0
 21 22  1  0
 22 23  2  0
 23 24  1  0
 24 25  2  0
 25 26  1  0
 26 27  1  0
 27 28  2  0
 28 29  1  0
 29 30  2  0
 30 31  1  0
 31 32  2  0
 13  5  1  0
 19 14  1  0
 25 20  1  0
 32 27  1  0
 12  8  1  0
 28 24  1  0
  3 33  1  0
  4 34  1  0
  4 35  1  0
  6 36  1  0
  7 37  1  0
 10 38  1  0
 10 39  1  0
 13 40  1  0
 15 41  1  0
 15 42  1  0
 16 43  1  0
 16 44  1  0
 18 45  1  0
 18 46  1  0
 19 47  1  0
 19 48  1  0
 22 49  1  0
 29 50  1  0
 30 51  1  0
 31 52  1  0
 32 53  1  0
M  END
$$$$
