
     RDKit          3D

 41 43  0  0  0  0  0  0  0  0999 V2000
   -0.3369    2.0619   -0.3828 C   0  0  0  0  0  0  0  0  0  0  0  0
   -1.0752    0.9961    0.2950 N   0  0  0  0  0  0  0  0  0  0  0  0
   -2.4849    0.8220    0.0537 C   0  0  0  0  0  0  0  0  0  0  0  0
   -3.0031    0.9109   -1.2486 C   0  0  0  0  0  0  0  0  0  0  0  0
   -4.3717    0.7480   -1.4821 C   0  0  0  0  0  0  0  0  0  0  0  0
   -5.2527    0.4922   -0.4165 C   0  0  0  0  0  0  0  0  0  0  0  0
   -4.7351    0.4242    0.8885 C   0  0  0  0  0  0  0  0  0  0  0  0
   -3.3665    0.5851    1.1204 C   0  0  0  0  0  0  0  0  0  0  0  0
   -6.7087    0.3228   -0.6453 C   0  0  0  0  0  0  0  0  0  0  0  0
   -7.5153    0.5430    0.2988 O   0  0  0  0  0  0  0  0  0  0  0  0
   -7.2214   -0.1050   -1.9133 N   0  0  0  0  0  0  0  0  0  0  0  0
   -8.5574   -0.1372   -2.1351 O   0  0  0  0  0  0  0  0  0  0  0  0
   -0.2396   -0.0201    1.4347 S   0  0  0  0  0  6  0  0  0  0  0  0
   -0.1239    0.6993    2.7489 O   0  0  0  0  0  0  0  0  0  0  0  0
   -0.9921   -1.3056    1.6368 O   0  0  0  0  0  0  0  0  0  0  0  0
    1.3569   -0.4099    0.8234 C   0  0  0  0  0  0  0  0  0  0  0  0
    1.6286   -0.9685   -0.4152 C   0  0  0  0  0  0  0  0  0  0  0  0
    2.9969   -1.1533   -0.6461 C   0  0  0  0  0  0  0  0  0  0  0  0
    3.8016   -0.7357    0.4168 C   0  0  0  0  0  0  0  0  0  0  0  0
    2.8002   -0.1381    1.6357 S   0  0  0  0  0  0  0  0  0  0  0  0
    5.2768   -0.7863    0.5000 C   0  0  0  0  0  0  0  0  0  0  0  0
    5.8896   -0.3242    1.6264 N   0  0  0  0  0  0  0  0  0  0  0  0
    7.2411   -0.3388    1.7744 C   0  0  0  0  0  0  0  0  0  0  0  0
    8.0500   -0.8385    0.7533 C   0  0  0  0  0  0  0  0  0  0  0  0
    7.4549   -1.3194   -0.4129 C   0  0  0  0  0  0  0  0  0  0  0  0
    6.0649   -1.2966   -0.5474 C   0  0  0  0  0  0  0  0  0  0  0  0
   -0.1803    1.7961   -1.4486 H   0  0  0  0  0  0  0  0  0  0  0  0
    0.6559    2.2172    0.0890 H   0  0  0  0  0  0  0  0  0  0  0  0
   -0.9025    3.0153   -0.3153 H   0  0  0  0  0  0  0  0  0  0  0  0
   -2.3486    1.0975   -2.0895 H   0  0  0  0  0  0  0  0  0  0  0  0
   -4.7349    0.8472   -2.4959 H   0  0  0  0  0  0  0  0  0  0  0  0
   -5.3887    0.2394    1.7321 H   0  0  0  0  0  0  0  0  0  0  0  0
   -2.9985    0.5406    2.1372 H   0  0  0  0  0  0  0  0  0  0  0  0
   -6.5816   -0.4272   -2.6722 H   0  0  0  0  0  0  0  0  0  0  0  0
   -8.8389   -1.0476   -1.8621 H   0  0  0  0  0  0  0  0  0  0  0  0
    0.8627   -1.2304   -1.1333 H   0  0  0  0  0  0  0  0  0  0  0  0
    3.3711   -1.5776   -1.5667 H   0  0  0  0  0  0  0  0  0  0  0  0
    7.6868    0.0379    2.6852 H   0  0  0  0  0  0  0  0  0  0  0  0
    9.1264   -0.8528    0.8650 H   0  0  0  0  0  0  0  0  0  0  0  0
    8.0704   -1.7100   -1.2130 H   0  0  0  0  0  0  0  0  0  0  0  0
    5.6234   -1.6740   -1.4586 H   0  0  0  0  0  0  0  0  0  0  0  0
  1  2  1  0
  2  3  1  0
  3  4  2  0
  4  5  1  0
  5  6  2  0
  6  7  1  0
  7  8  2  0
  6  9  1  0
  9 10  2  0
  9 11  1  0
 11 12  1  0
  2 13  1  0
 13 14  2  0
 13 15  2  0
 13 16  1  0
 16 17  2  0
 17 18  1  0
 18 19  2  0
 19 20  1  0
 19 21  1  0
 21 22  2  0
 22 23  1  0
 23 24  2  0
 24 25  1  0
 25 26  2  0
  8  3  1  0
 20 16  1  0
 26 21  1  0
  1 27  1  0
  1 28  1  0
  1 29  1  0
  4 30  1  0
  5 31  1  0
  7 32  1  0
  8 33  1  0
 11 34  1  0
 12 35  1  0
 17 36  1  0
 18 37  1  0
 23 38  1  0
 24 39  1  0
 25 40  1  0
 26 41  1  0
M  END
$$$$
