
     RDKit          3D

 23 23  0  0  0  0  0  0  0  0999 V2000
   -1.6025   -1.1237    1.0775 N   0  0  0  0  0  0  0  0  0  0  0  0
   -1.6501    0.0996    0.2735 C   0  0  1  0  0  0  0  0  0  0  0  0
   -0.7096   -0.0094   -0.9417 C   0  0  0  0  0  0  0  0  0  0  0  0
    0.7007   -0.0904   -0.5213 N   0  0  0  0  0  0  0  0  0  0  0  0
    1.3500    1.0598   -0.1707 C   0  0  0  0  0  0  0  0  0  0  0  0
    2.6789    1.0274    0.2468 C   0  0  0  0  0  0  0  0  0  0  0  0
    3.6578    2.8243    0.7823 I   0  0  0  0  0  0  0  0  0  0  0  0
    3.3287   -0.2054    0.3010 C   0  0  0  0  0  0  0  0  0  0  0  0
    4.5306   -0.2745    0.6732 O   0  0  0  0  0  0  0  0  0  0  0  0
    2.6612   -1.3365   -0.0480 N   0  0  0  0  0  0  0  0  0  0  0  0
    1.3619   -1.2916   -0.4529 C   0  0  0  0  0  0  0  0  0  0  0  0
    0.7758   -2.3663   -0.7593 O   0  0  0  0  0  0  0  0  0  0  0  0
   -3.0555    0.3477   -0.1986 C   0  0  0  0  0  0  0  0  0  0  0  0
   -3.6180    1.6128   -0.0607 O   0  0  0  0  0  0  0  0  0  0  0  0
   -3.7161   -0.5773   -0.7442 O   0  0  0  0  0  0  0  0  0  0  0  0
   -0.6634   -1.1827    1.5334 H   0  0  0  0  0  0  0  0  0  0  0  0
   -2.2870   -1.0293    1.8634 H   0  0  0  0  0  0  0  0  0  0  0  0
   -1.3339    0.9634    0.9016 H   0  0  0  0  0  0  0  0  0  0  0  0
   -0.8460    0.8831   -1.5939 H   0  0  0  0  0  0  0  0  0  0  0  0
   -0.9940   -0.8868   -1.5637 H   0  0  0  0  0  0  0  0  0  0  0  0
    0.8359    2.0130   -0.2122 H   0  0  0  0  0  0  0  0  0  0  0  0
    3.1539   -2.2580   -0.0018 H   0  0  0  0  0  0  0  0  0  0  0  0
   -4.5597    1.8006   -0.3835 H   0  0  0  0  0  0  0  0  0  0  0  0
  1  2  1  0
  2  3  1  0
  3  4  1  0
  4  5  1  0
  5  6  2  0
  6  7  1  0
  6  8  1  0
  8  9  2  0
  8 10  1  0
 10 11  1  0
 11 12  2  0
  2 13  1  0
 13 14  1  0
 13 15  2  0
 11  4  1  0
  1 16  1  0
  1 17  1  0
  2 18  1  1
  3 19  1  0
  3 20  1  0
  5 21  1  0
 10 22  1  0
 14 23  1  0
M  END
$$$$
