
     RDKit          3D

 52 54  0  0  0  0  0  0  0  0999 V2000
   -6.1031   -0.5855    2.2577 C   0  0  0  0  0  0  0  0  0  0  0  0
   -4.7354   -0.2148    1.6745 C   0  0  0  0  0  0  0  0  0  0  0  0
   -3.6805   -1.2978    2.0016 C   0  0  0  0  0  0  0  0  0  0  0  0
   -2.4955   -1.2825    1.0179 C   0  0  0  0  0  0  0  0  0  0  0  0
   -2.3288    0.0629    0.4386 N   0  0  0  0  0  0  0  0  0  0  0  0
   -1.0148    0.2760   -0.2074 C   0  0  0  0  0  0  0  0  0  0  0  0
   -0.6282   -0.8174   -1.2365 C   0  0  0  0  0  0  0  0  0  0  0  0
    0.6034   -0.4502   -2.0908 C   0  0  1  0  0  0  0  0  0  0  0  0
    0.2765    0.5406   -3.2051 C   0  0  0  0  0  0  0  0  0  0  0  0
    1.5529    1.3258   -3.3752 C   0  0  0  0  0  0  0  0  0  0  0  0
    2.1947    1.3075   -1.9991 C   0  0  0  0  0  0  0  0  0  0  0  0
    1.6649    0.1493   -1.2632 N   0  0  0  0  0  0  0  0  0  0  0  0
    2.9256   -1.0085   -0.9073 S   0  0  0  0  0  6  0  0  0  0  0  0
    2.3298   -2.2333   -0.2717 O   0  0  0  0  0  0  0  0  0  0  0  0
    3.6241   -1.4002   -2.1810 O   0  0  0  0  0  0  0  0  0  0  0  0
    4.0765   -0.2908    0.2146 C   0  0  0  0  0  0  0  0  0  0  0  0
    5.4475   -0.5598    0.0978 C   0  0  0  0  0  0  0  0  0  0  0  0
    6.3536    0.0145    0.9942 C   0  0  0  0  0  0  0  0  0  0  0  0
    5.8954    0.8564    2.0117 C   0  0  0  0  0  0  0  0  0  0  0  0
    4.5253    1.1249    2.1373 C   0  0  0  0  0  0  0  0  0  0  0  0
    4.0551    1.9600    3.1483 O   0  0  0  0  0  0  0  0  0  0  0  0
    3.6191    0.5491    1.2398 C   0  0  0  0  0  0  0  0  0  0  0  0
   -3.4657    0.4522   -0.4273 C   0  0  0  0  0  0  0  0  0  0  0  0
   -4.8264    0.0122    0.1562 C   0  0  0  0  0  0  0  0  0  0  0  0
   -6.4882   -1.5191    1.7940 H   0  0  0  0  0  0  0  0  0  0  0  0
   -6.0203   -0.7364    3.3552 H   0  0  0  0  0  0  0  0  0  0  0  0
   -6.8315    0.2326    2.0730 H   0  0  0  0  0  0  0  0  0  0  0  0
   -4.4155    0.7420    2.1463 H   0  0  0  0  0  0  0  0  0  0  0  0
   -4.1394   -2.3112    1.9786 H   0  0  0  0  0  0  0  0  0  0  0  0
   -3.3054   -1.1273    3.0346 H   0  0  0  0  0  0  0  0  0  0  0  0
   -1.5754   -1.5884    1.5639 H   0  0  0  0  0  0  0  0  0  0  0  0
   -2.6814   -2.0267    0.2105 H   0  0  0  0  0  0  0  0  0  0  0  0
   -1.0002    1.2798   -0.6829 H   0  0  0  0  0  0  0  0  0  0  0  0
   -0.2376    0.3061    0.5871 H   0  0  0  0  0  0  0  0  0  0  0  0
   -0.3916   -1.7531   -0.6861 H   0  0  0  0  0  0  0  0  0  0  0  0
   -1.4748   -1.0475   -1.9151 H   0  0  0  0  0  0  0  0  0  0  0  0
    0.9598   -1.3817   -2.5897 H   0  0  0  0  0  0  0  0  0  0  0  0
   -0.5445    1.2319   -2.9177 H   0  0  0  0  0  0  0  0  0  0  0  0
   -0.0050    0.0198   -4.1464 H   0  0  0  0  0  0  0  0  0  0  0  0
    1.3537    2.3627   -3.7230 H   0  0  0  0  0  0  0  0  0  0  0  0
    2.2161    0.8090   -4.1037 H   0  0  0  0  0  0  0  0  0  0  0  0
    3.3038    1.3058   -2.0894 H   0  0  0  0  0  0  0  0  0  0  0  0
    1.9052    2.2288   -1.4492 H   0  0  0  0  0  0  0  0  0  0  0  0
    5.8154   -1.2126   -0.6832 H   0  0  0  0  0  0  0  0  0  0  0  0
    7.4117   -0.1937    0.9007 H   0  0  0  0  0  0  0  0  0  0  0  0
    6.6038    1.2971    2.7016 H   0  0  0  0  0  0  0  0  0  0  0  0
    4.6853    2.3921    3.8139 H   0  0  0  0  0  0  0  0  0  0  0  0
    2.5611    0.7569    1.3419 H   0  0  0  0  0  0  0  0  0  0  0  0
   -3.4676    1.5598   -0.5251 H   0  0  0  0  0  0  0  0  0  0  0  0
   -3.3652    0.0294   -1.4488 H   0  0  0  0  0  0  0  0  0  0  0  0
   -5.1465   -0.9334   -0.3359 H   0  0  0  0  0  0  0  0  0  0  0  0
   -5.5921    0.7863   -0.0707 H   0  0  0  0  0  0  0  0  0  0  0  0
  1  2  1  0
  2  3  1  0
  3  4  1  0
  4  5  1  0
  5  6  1  0
  6  7  1  0
  7  8  1  0
  8  9  1  0
  9 10  1  0
 10 11  1  0
 11 12  1  0
 12 13  1  0
 13 14  2  0
 13 15  2  0
 13 16  1  0
 16 17  2  0
 17 18  1  0
 18 19  2  0
 19 20  1  0
 20 21  1  0
 20 22  2  0
  5 23  1  0
 23 24  1  0
 24  2  1  0
 12  8  1  0
 22 16  1  0
  1 25  1  0
  1 26  1  0
  1 27  1  0
  2 28  1  0
  3 29  1  0
  3 30  1  0
  4 31  1  0
  4 32  1  0
  6 33  1  0
  6 34  1  0
  7 35  1  0
  7 36  1  0
  8 37  1  6
  9 38  1  0
  9 39  1  0
 10 40  1  0
 10 41  1  0
 11 42  1  0
 11 43  1  0
 17 44  1  0
 18 45  1  0
 19 46  1  0
 21 47  1  0
 22 48  1  0
 23 49  1  0
 23 50  1  0
 24 51  1  0
 24 52  1  0
M  END
$$$$
