
     RDKit          3D

 43 46  0  0  0  0  0  0  0  0999 V2000
   -4.4940   -2.9122    0.8197 C   0  0  0  0  0  0  0  0  0  0  0  0
   -3.3041   -2.5485   -0.0633 C   0  0  0  0  0  0  0  0  0  0  0  0
   -2.7522   -1.1646    0.2950 C   0  0  0  0  0  0  0  0  0  0  0  0
   -1.5599   -0.8014   -0.5935 C   0  0  0  0  0  0  0  0  0  0  0  0
   -1.0311    0.5104   -0.2177 N   0  0  0  0  0  0  0  0  0  0  0  0
   -0.1026    0.8243    0.7306 C   0  0  0  0  0  0  0  0  0  0  0  0
    0.6767   -0.1837    1.5259 C   0  0  0  0  0  0  0  0  0  0  0  0
    1.8801   -0.6536    0.7538 C   0  0  0  0  0  0  0  0  0  0  0  0
    2.9369    0.2443    0.4775 C   0  0  0  0  0  0  0  0  0  0  0  0
    4.0273   -0.2305   -0.2452 C   0  0  0  0  0  0  0  0  0  0  0  0
    4.0995   -1.5139   -0.6786 C   0  0  0  0  0  0  0  0  0  0  0  0
    5.2844   -1.7029   -1.3632 O   0  0  0  0  0  0  0  0  0  0  0  0
    6.0011   -0.4602   -1.3596 C   0  0  0  0  0  0  0  0  0  0  0  0
    5.1634    0.4518   -0.6354 O   0  0  0  0  0  0  0  0  0  0  0  0
    3.0883   -2.4350   -0.4256 C   0  0  0  0  0  0  0  0  0  0  0  0
    1.9670   -1.9967    0.3020 C   0  0  0  0  0  0  0  0  0  0  0  0
    0.1014    2.1653    0.8642 N   0  0  0  0  0  0  0  0  0  0  0  0
   -0.7590    2.6871   -0.0291 C   0  0  0  0  0  0  0  0  0  0  0  0
   -1.0165    4.0186   -0.3338 C   0  0  0  0  0  0  0  0  0  0  0  0
   -0.3253    5.0862    0.3148 N   0  0  0  0  0  0  0  0  0  0  0  0
   -1.9655    4.2788   -1.2824 N   0  0  0  0  0  0  0  0  0  0  0  0
   -2.6427    3.2658   -1.9131 C   0  0  0  0  0  0  0  0  0  0  0  0
   -3.5781    3.5615   -2.8470 F   0  0  0  0  0  0  0  0  0  0  0  0
   -2.3802    1.9597   -1.6052 N   0  0  0  0  0  0  0  0  0  0  0  0
   -1.4361    1.7053   -0.6667 C   0  0  0  0  0  0  0  0  0  0  0  0
   -4.8722   -3.9175    0.5382 H   0  0  0  0  0  0  0  0  0  0  0  0
   -5.3134   -2.1741    0.6862 H   0  0  0  0  0  0  0  0  0  0  0  0
   -4.1895   -2.9335    1.8879 H   0  0  0  0  0  0  0  0  0  0  0  0
   -2.5095   -3.3148    0.0705 H   0  0  0  0  0  0  0  0  0  0  0  0
   -3.6285   -2.5590   -1.1267 H   0  0  0  0  0  0  0  0  0  0  0  0
   -2.4328   -1.1580    1.3599 H   0  0  0  0  0  0  0  0  0  0  0  0
   -3.5498   -0.4008    0.1630 H   0  0  0  0  0  0  0  0  0  0  0  0
   -0.7660   -1.5702   -0.5003 H   0  0  0  0  0  0  0  0  0  0  0  0
   -1.8789   -0.7817   -1.6586 H   0  0  0  0  0  0  0  0  0  0  0  0
    1.0153    0.2814    2.4766 H   0  0  0  0  0  0  0  0  0  0  0  0
    0.0195   -1.0351    1.8023 H   0  0  0  0  0  0  0  0  0  0  0  0
    2.9066    1.2735    0.8120 H   0  0  0  0  0  0  0  0  0  0  0  0
    6.9747   -0.5810   -0.8400 H   0  0  0  0  0  0  0  0  0  0  0  0
    6.1496   -0.1007   -2.3994 H   0  0  0  0  0  0  0  0  0  0  0  0
    3.1636   -3.4559   -0.7759 H   0  0  0  0  0  0  0  0  0  0  0  0
    1.1722   -2.7002    0.5150 H   0  0  0  0  0  0  0  0  0  0  0  0
   -0.5405    6.0773    0.0670 H   0  0  0  0  0  0  0  0  0  0  0  0
    0.4008    4.8944    1.0404 H   0  0  0  0  0  0  0  0  0  0  0  0
  1  2  1  0
  2  3  1  0
  3  4  1  0
  4  5  1  0
  5  6  1  0
  6  7  1  0
  7  8  1  0
  8  9  2  0
  9 10  1  0
 10 11  2  0
 11 12  1  0
 12 13  1  0
 13 14  1  0
 11 15  1  0
 15 16  2  0
  6 17  2  0
 17 18  1  0
 18 19  2  0
 19 20  1  0
 19 21  1  0
 21 22  2  0
 22 23  1  0
 22 24  1  0
 24 25  2  0
 25  5  1  0
 16  8  1  0
 25 18  1  0
 14 10  1  0
  1 26  1  0
  1 27  1  0
  1 28  1  0
  2 29  1  0
  2 30  1  0
  3 31  1  0
  3 32  1  0
  4 33  1  0
  4 34  1  0
  7 35  1  0
  7 36  1  0
  9 37  1  0
 13 38  1  0
 13 39  1  0
 15 40  1  0
 16 41  1  0
 20 42  1  0
 20 43  1  0
M  END
$$$$
