
     RDKit          3D

 45 44  0  0  0  0  0  0  0  0999 V2000
    5.8923    0.4679    0.2419 O   0  0  0  0  0  0  0  0  0  0  0  0
    4.9658   -0.4102   -0.3461 C   0  0  0  0  0  0  0  0  0  0  0  0
    3.4880   -0.0626    0.0277 C   0  0  0  0  0  0  0  0  0  0  0  0
    3.2304    1.4334   -0.3075 C   0  0  0  0  0  0  0  0  0  0  0  0
    3.4178    1.6860   -1.6755 O   0  0  0  0  0  0  0  0  0  0  0  0
    3.2787   -0.3103    1.5532 C   0  0  0  0  0  0  0  0  0  0  0  0
    4.1703    0.4488    2.3298 O   0  0  0  0  0  0  0  0  0  0  0  0
    2.5965   -0.9189   -0.8171 N   0  0  0  0  0  0  0  0  0  0  0  0
    1.2485   -1.2716   -0.3217 C   0  0  0  0  0  0  0  0  0  0  0  0
    0.2622   -0.0966   -0.3818 C   0  0  0  0  0  0  0  0  0  0  0  0
   -1.1894   -0.5808   -0.3027 C   0  0  0  0  0  0  0  0  0  0  0  0
   -2.0956    0.5799   -0.3039 N   0  0  0  0  0  0  0  0  0  0  0  0
   -3.5130    0.3058    0.0615 C   0  0  0  0  0  0  0  0  0  0  0  0
   -3.6109   -0.0575    1.5749 C   0  0  0  0  0  0  0  0  0  0  0  0
   -4.9452   -0.1319    2.0076 O   0  0  0  0  0  0  0  0  0  0  0  0
   -4.1382   -0.8109   -0.8274 C   0  0  0  0  0  0  0  0  0  0  0  0
   -3.6909   -2.0842   -0.4457 O   0  0  0  0  0  0  0  0  0  0  0  0
   -4.3182    1.6209   -0.1580 C   0  0  0  0  0  0  0  0  0  0  0  0
   -4.3304    1.9954   -1.5129 O   0  0  0  0  0  0  0  0  0  0  0  0
    6.1023    1.1666   -0.4313 H   0  0  0  0  0  0  0  0  0  0  0  0
    5.2021   -1.4400   -0.0008 H   0  0  0  0  0  0  0  0  0  0  0  0
    5.0875   -0.4173   -1.4557 H   0  0  0  0  0  0  0  0  0  0  0  0
    3.9303    2.0812    0.2611 H   0  0  0  0  0  0  0  0  0  0  0  0
    2.2208    1.7631    0.0071 H   0  0  0  0  0  0  0  0  0  0  0  0
    2.5753    1.4310   -2.1334 H   0  0  0  0  0  0  0  0  0  0  0  0
    3.3830   -1.3986    1.7776 H   0  0  0  0  0  0  0  0  0  0  0  0
    2.2555   -0.0081    1.8548 H   0  0  0  0  0  0  0  0  0  0  0  0
    4.8830   -0.1659    2.6460 H   0  0  0  0  0  0  0  0  0  0  0  0
    3.0721   -1.8326   -1.0103 H   0  0  0  0  0  0  0  0  0  0  0  0
    0.8531   -2.0748   -0.9839 H   0  0  0  0  0  0  0  0  0  0  0  0
    1.2780   -1.7191    0.6932 H   0  0  0  0  0  0  0  0  0  0  0  0
    0.4355    0.5810    0.4781 H   0  0  0  0  0  0  0  0  0  0  0  0
    0.4067    0.4653   -1.3298 H   0  0  0  0  0  0  0  0  0  0  0  0
   -1.2977   -1.1784    0.6233 H   0  0  0  0  0  0  0  0  0  0  0  0
   -1.3995   -1.2301   -1.1814 H   0  0  0  0  0  0  0  0  0  0  0  0
   -2.0571    0.9866   -1.2681 H   0  0  0  0  0  0  0  0  0  0  0  0
   -3.0979   -1.0140    1.8120 H   0  0  0  0  0  0  0  0  0  0  0  0
   -3.0980    0.7285    2.1700 H   0  0  0  0  0  0  0  0  0  0  0  0
   -5.2755   -1.0376    1.7718 H   0  0  0  0  0  0  0  0  0  0  0  0
   -3.8780   -0.6292   -1.8947 H   0  0  0  0  0  0  0  0  0  0  0  0
   -5.2484   -0.7849   -0.7418 H   0  0  0  0  0  0  0  0  0  0  0  0
   -4.1142   -2.7262   -1.0730 H   0  0  0  0  0  0  0  0  0  0  0  0
   -5.3745    1.4876    0.1596 H   0  0  0  0  0  0  0  0  0  0  0  0
   -3.8942    2.4359    0.4764 H   0  0  0  0  0  0  0  0  0  0  0  0
   -3.6689    2.7273   -1.6228 H   0  0  0  0  0  0  0  0  0  0  0  0
  1  2  1  0
  2  3  1  0
  3  4  1  0
  4  5  1  0
  3  6  1  0
  6  7  1  0
  3  8  1  0
  8  9  1  0
  9 10  1  0
 10 11  1  0
 11 12  1  0
 12 13  1  0
 13 14  1  0
 14 15  1  0
 13 16  1  0
 16 17  1  0
 13 18  1  0
 18 19  1  0
  1 20  1  0
  2 21  1  0
  2 22  1  0
  4 23  1  0
  4 24  1  0
  5 25  1  0
  6 26  1  0
  6 27  1  0
  7 28  1  0
  8 29  1  0
  9 30  1  0
  9 31  1  0
 10 32  1  0
 10 33  1  0
 11 34  1  0
 11 35  1  0
 12 36  1  0
 14 37  1  0
 14 38  1  0
 15 39  1  0
 16 40  1  0
 16 41  1  0
 17 42  1  0
 18 43  1  0
 18 44  1  0
 19 45  1  0
M  END
$$$$
