
     RDKit          3D

 74 77  0  0  0  0  0  0  0  0999 V2000
   -2.2928    5.9730    0.5034 C   0  0  0  0  0  0  0  0  0  0  0  0
   -1.9261    4.5651    0.0455 C   0  0  0  0  0  0  0  0  0  0  0  0
   -1.5855    3.6663    1.2370 C   0  0  0  0  0  0  0  0  0  0  0  0
   -1.3047    2.3388    0.7952 O   0  0  0  0  0  0  0  0  0  0  0  0
   -0.1395    1.9174    0.1283 C   0  0  0  0  0  0  0  0  0  0  0  0
    1.0009    2.7385    0.0307 C   0  0  0  0  0  0  0  0  0  0  0  0
    2.1554    2.2760   -0.6021 C   0  0  0  0  0  0  0  0  0  0  0  0
    2.1929    0.9914   -1.1526 C   0  0  0  0  0  0  0  0  0  0  0  0
    1.0612    0.1722   -1.0727 C   0  0  0  0  0  0  0  0  0  0  0  0
   -0.1069    0.6215   -0.4335 C   0  0  0  0  0  0  0  0  0  0  0  0
   -1.3031   -0.2528   -0.3869 C   0  0  0  0  0  0  0  0  0  0  0  0
   -2.5414    0.3019   -0.5533 N   0  0  0  0  0  0  0  0  0  0  0  0
   -3.6278   -0.5001   -0.5019 C   0  0  0  0  0  0  0  0  0  0  0  0
   -3.5387   -1.8405   -0.2896 C   0  0  0  0  0  0  0  0  0  0  0  0
   -4.7745   -2.3915   -0.2648 N   0  0  0  0  0  0  0  0  0  0  0  0
   -5.1437   -3.7993   -0.1108 C   0  0  0  0  0  0  0  0  0  0  0  0
   -5.0257   -4.5284   -1.4441 C   0  0  0  0  0  0  0  0  0  0  0  0
   -5.6449   -1.3709   -0.4791 C   0  0  0  0  0  0  0  0  0  0  0  0
   -4.9564   -0.1703   -0.6301 C   0  0  0  0  0  0  0  0  0  0  0  0
   -5.5416    1.1957   -0.8403 C   0  0  0  0  0  0  0  0  0  0  0  0
   -5.4081    2.0748    0.4105 C   0  0  0  0  0  0  0  0  0  0  0  0
   -6.2562    1.5624    1.5736 C   0  0  0  0  0  0  0  0  0  0  0  0
   -2.2801   -2.4224   -0.1257 C   0  0  0  0  0  0  0  0  0  0  0  0
   -2.1453   -3.6590    0.0718 O   0  0  0  0  0  0  0  0  0  0  0  0
   -1.1811   -1.6088   -0.1786 N   0  0  0  0  0  0  0  0  0  0  0  0
    3.6574    0.4010   -1.9425 S   0  0  0  0  0  6  0  0  0  0  0  0
    4.4508    1.5685   -2.4609 O   0  0  0  0  0  0  0  0  0  0  0  0
    3.2722   -0.4573   -3.1152 O   0  0  0  0  0  0  0  0  0  0  0  0
    4.6465   -0.5307   -0.8456 N   0  0  0  0  0  0  0  0  0  0  0  0
    3.8707   -1.6305   -0.2582 C   0  0  0  0  0  0  0  0  0  0  0  0
    4.8035   -2.5658    0.5386 C   0  0  0  0  0  0  0  0  0  0  0  0
    6.0240   -1.8846    1.0386 N   0  0  0  0  0  0  0  0  0  0  0  0
    7.1730   -2.0152    0.1128 C   0  0  0  0  0  0  0  0  0  0  0  0
    7.9497   -3.3010    0.4069 C   0  0  0  0  0  0  0  0  0  0  0  0
    8.4083   -3.3087    1.7320 O   0  0  0  0  0  0  0  0  0  0  0  0
    5.7510   -0.4789    1.4003 C   0  0  0  0  0  0  0  0  0  0  0  0
    5.2069    0.3380    0.2065 C   0  0  0  0  0  0  0  0  0  0  0  0
   -1.4411    6.4354    1.0463 H   0  0  0  0  0  0  0  0  0  0  0  0
   -3.1810    5.9429    1.1700 H   0  0  0  0  0  0  0  0  0  0  0  0
   -2.5337    6.6003   -0.3806 H   0  0  0  0  0  0  0  0  0  0  0  0
   -1.0590    4.6251   -0.6456 H   0  0  0  0  0  0  0  0  0  0  0  0
   -2.7844    4.1281   -0.5100 H   0  0  0  0  0  0  0  0  0  0  0  0
   -0.7372    4.0738    1.8266 H   0  0  0  0  0  0  0  0  0  0  0  0
   -2.4651    3.6211    1.9139 H   0  0  0  0  0  0  0  0  0  0  0  0
    1.0145    3.7335    0.4508 H   0  0  0  0  0  0  0  0  0  0  0  0
    3.0236    2.9205   -0.6557 H   0  0  0  0  0  0  0  0  0  0  0  0
    1.0886   -0.8107   -1.5259 H   0  0  0  0  0  0  0  0  0  0  0  0
   -6.1924   -3.8755    0.2511 H   0  0  0  0  0  0  0  0  0  0  0  0
   -4.4999   -4.2866    0.6508 H   0  0  0  0  0  0  0  0  0  0  0  0
   -5.3124   -5.5931   -1.3142 H   0  0  0  0  0  0  0  0  0  0  0  0
   -5.7016   -4.0631   -2.1926 H   0  0  0  0  0  0  0  0  0  0  0  0
   -3.9818   -4.4818   -1.8191 H   0  0  0  0  0  0  0  0  0  0  0  0
   -6.7205   -1.4871   -0.5224 H   0  0  0  0  0  0  0  0  0  0  0  0
   -6.6111    1.1101   -1.1312 H   0  0  0  0  0  0  0  0  0  0  0  0
   -5.0046    1.6846   -1.6812 H   0  0  0  0  0  0  0  0  0  0  0  0
   -5.7395    3.1051    0.1575 H   0  0  0  0  0  0  0  0  0  0  0  0
   -4.3439    2.1320    0.7256 H   0  0  0  0  0  0  0  0  0  0  0  0
   -6.1715    2.2637    2.4302 H   0  0  0  0  0  0  0  0  0  0  0  0
   -5.9027    0.5625    1.9029 H   0  0  0  0  0  0  0  0  0  0  0  0
   -7.3235    1.4950    1.2736 H   0  0  0  0  0  0  0  0  0  0  0  0
   -0.2372   -2.0324   -0.0299 H   0  0  0  0  0  0  0  0  0  0  0  0
    3.0829   -1.2303    0.4197 H   0  0  0  0  0  0  0  0  0  0  0  0
    3.3697   -2.2205   -1.0567 H   0  0  0  0  0  0  0  0  0  0  0  0
    5.0674   -3.4435   -0.0919 H   0  0  0  0  0  0  0  0  0  0  0  0
    4.2433   -2.9716    1.4082 H   0  0  0  0  0  0  0  0  0  0  0  0
    7.8810   -1.1633    0.2244 H   0  0  0  0  0  0  0  0  0  0  0  0
    6.8413   -2.0214   -0.9495 H   0  0  0  0  0  0  0  0  0  0  0  0
    8.8067   -3.3912   -0.2986 H   0  0  0  0  0  0  0  0  0  0  0  0
    7.2958   -4.1838    0.2503 H   0  0  0  0  0  0  0  0  0  0  0  0
    9.1791   -2.6841    1.7695 H   0  0  0  0  0  0  0  0  0  0  0  0
    6.6645    0.0029    1.8132 H   0  0  0  0  0  0  0  0  0  0  0  0
    4.9997   -0.4645    2.2210 H   0  0  0  0  0  0  0  0  0  0  0  0
    6.0400    0.9289   -0.2313 H   0  0  0  0  0  0  0  0  0  0  0  0
    4.4456    1.0532    0.5880 H   0  0  0  0  0  0  0  0  0  0  0  0
  1  2  1  0
  2  3  1  0
  3  4  1  0
  4  5  1  0
  5  6  2  0
  6  7  1  0
  7  8  2  0
  8  9  1  0
  9 10  2  0
 10 11  1  0
 11 12  2  0
 12 13  1  0
 13 14  2  0
 14 15  1  0
 15 16  1  0
 16 17  1  0
 15 18  1  0
 18 19  2  0
 19 20  1  0
 20 21  1  0
 21 22  1  0
 14 23  1  0
 23 24  2  0
 23 25  1  0
  8 26  1  0
 26 27  2  0
 26 28  2  0
 26 29  1  0
 29 30  1  0
 30 31  1  0
 31 32  1  0
 32 33  1  0
 33 34  1  0
 34 35  1  0
 32 36  1  0
 36 37  1  0
 10  5  1  0
 25 11  1  0
 37 29  1  0
 19 13  1  0
  1 38  1  0
  1 39  1  0
  1 40  1  0
  2 41  1  0
  2 42  1  0
  3 43  1  0
  3 44  1  0
  6 45  1  0
  7 46  1  0
  9 47  1  0
 16 48  1  0
 16 49  1  0
 17 50  1  0
 17 51  1  0
 17 52  1  0
 18 53  1  0
 20 54  1  0
 20 55  1  0
 21 56  1  0
 21 57  1  0
 22 58  1  0
 22 59  1  0
 22 60  1  0
 25 61  1  0
 30 62  1  0
 30 63  1  0
 31 64  1  0
 31 65  1  0
 33 66  1  0
 33 67  1  0
 34 68  1  0
 34 69  1  0
 35 70  1  0
 36 71  1  0
 36 72  1  0
 37 73  1  0
 37 74  1  0
M  END
$$$$
