
     RDKit          3D

 60 62  0  0  0  0  0  0  0  0999 V2000
    9.1064    0.4929   -0.9650 C   0  0  0  0  0  0  0  0  0  0  0  0
    7.9657    0.4618    0.0479 C   0  0  0  0  0  0  0  0  0  0  0  0
    7.1125    1.7350   -0.0410 C   0  0  0  0  0  0  0  0  0  0  0  0
    5.9695    1.7305    0.9827 C   0  0  0  0  0  0  0  0  0  0  0  0
    4.9491    0.7352    0.6488 N   0  0  0  0  0  0  0  0  0  0  0  0
    3.8180    0.5138    1.5054 C   0  0  0  0  0  0  0  0  0  0  0  0
    3.6086    1.2966    2.4727 O   0  0  0  0  0  0  0  0  0  0  0  0
    2.8810   -0.6098    1.2635 C   0  0  0  0  0  0  0  0  0  0  0  0
    3.2974   -1.7687    0.5843 C   0  0  0  0  0  0  0  0  0  0  0  0
    2.4017   -2.8164    0.3602 C   0  0  0  0  0  0  0  0  0  0  0  0
    1.0873   -2.7299    0.8221 C   0  0  0  0  0  0  0  0  0  0  0  0
    0.6602   -1.5959    1.5335 C   0  0  0  0  0  0  0  0  0  0  0  0
   -0.6945   -1.4701    1.9982 N   0  0  0  0  0  0  0  0  0  0  0  0
   -1.5082   -2.5788    2.4117 C   0  0  0  0  0  0  0  0  0  0  0  0
   -0.9805   -3.6817    2.7199 O   0  0  0  0  0  0  0  0  0  0  0  0
   -3.0007   -2.4347    2.4733 C   0  0  0  0  0  0  0  0  0  0  0  0
   -3.6852   -3.0445    1.2391 C   0  0  0  0  0  0  0  0  0  0  0  0
   -3.2538   -2.4199   -0.1009 C   0  0  0  0  0  0  0  0  0  0  0  0
   -3.6733   -0.9492   -0.2353 C   0  0  0  0  0  0  0  0  0  0  0  0
   -3.3335   -0.4078   -1.6275 C   0  0  0  0  0  0  0  0  0  0  0  0
   -3.6873    1.0068   -1.7258 N   0  0  0  0  0  0  0  0  0  0  0  0
   -5.0433    1.4563   -1.8645 C   0  0  0  0  0  0  0  0  0  0  0  0
   -5.3578    2.8103   -1.9112 C   0  0  0  0  0  0  0  0  0  0  0  0
   -4.5467    3.8810   -1.8380 N   0  0  0  0  0  0  0  0  0  0  0  0
   -5.4201    4.9215   -1.9361 C   0  0  0  0  0  0  0  0  0  0  0  0
   -6.7149    4.5362   -2.0642 N   0  0  0  0  0  0  0  0  0  0  0  0
   -6.6443    3.2026   -2.0451 C   0  0  0  0  0  0  0  0  0  0  0  0
   -7.6712    2.3250   -2.1404 N   0  0  0  0  0  0  0  0  0  0  0  0
   -7.3774    0.9904   -2.0981 C   0  0  0  0  0  0  0  0  0  0  0  0
   -6.0793    0.5674   -1.9628 N   0  0  0  0  0  0  0  0  0  0  0  0
    1.5578   -0.5364    1.7364 C   0  0  0  0  0  0  0  0  0  0  0  0
    9.7698    1.3629   -0.7729 H   0  0  0  0  0  0  0  0  0  0  0  0
    9.7066   -0.4372   -0.8777 H   0  0  0  0  0  0  0  0  0  0  0  0
    8.7030    0.5596   -1.9979 H   0  0  0  0  0  0  0  0  0  0  0  0
    8.3954    0.3698    1.0692 H   0  0  0  0  0  0  0  0  0  0  0  0
    7.3387   -0.4340   -0.1496 H   0  0  0  0  0  0  0  0  0  0  0  0
    7.7583    2.6180    0.1591 H   0  0  0  0  0  0  0  0  0  0  0  0
    6.6933    1.8441   -1.0654 H   0  0  0  0  0  0  0  0  0  0  0  0
    5.4995    2.7375    0.9981 H   0  0  0  0  0  0  0  0  0  0  0  0
    6.3766    1.5236    1.9966 H   0  0  0  0  0  0  0  0  0  0  0  0
    5.0126    0.2182   -0.2566 H   0  0  0  0  0  0  0  0  0  0  0  0
    4.3167   -1.8786    0.2389 H   0  0  0  0  0  0  0  0  0  0  0  0
    2.7272   -3.6984   -0.1762 H   0  0  0  0  0  0  0  0  0  0  0  0
    0.4034   -3.5390    0.6039 H   0  0  0  0  0  0  0  0  0  0  0  0
   -1.0980   -0.5095    2.0803 H   0  0  0  0  0  0  0  0  0  0  0  0
   -3.2843   -1.3676    2.5867 H   0  0  0  0  0  0  0  0  0  0  0  0
   -3.3721   -2.9594    3.3799 H   0  0  0  0  0  0  0  0  0  0  0  0
   -4.7864   -2.9425    1.3525 H   0  0  0  0  0  0  0  0  0  0  0  0
   -3.4613   -4.1334    1.2085 H   0  0  0  0  0  0  0  0  0  0  0  0
   -3.7328   -3.0042   -0.9169 H   0  0  0  0  0  0  0  0  0  0  0  0
   -2.1541   -2.5142   -0.2312 H   0  0  0  0  0  0  0  0  0  0  0  0
   -4.7663   -0.8598   -0.0562 H   0  0  0  0  0  0  0  0  0  0  0  0
   -3.1406   -0.3333    0.5193 H   0  0  0  0  0  0  0  0  0  0  0  0
   -3.8675   -0.9851   -2.4134 H   0  0  0  0  0  0  0  0  0  0  0  0
   -2.2411   -0.5195   -1.8042 H   0  0  0  0  0  0  0  0  0  0  0  0
   -2.9129    1.7087   -1.7405 H   0  0  0  0  0  0  0  0  0  0  0  0
   -5.1096    5.9577   -1.9136 H   0  0  0  0  0  0  0  0  0  0  0  0
   -7.5622    5.1393   -2.1553 H   0  0  0  0  0  0  0  0  0  0  0  0
   -8.1738    0.2628   -2.1722 H   0  0  0  0  0  0  0  0  0  0  0  0
    1.2185    0.3475    2.2631 H   0  0  0  0  0  0  0  0  0  0  0  0
  1  2  1  0
  2  3  1  0
  3  4  1  0
  4  5  1  0
  5  6  1  0
  6  7  2  0
  6  8  1  0
  8  9  2  0
  9 10  1  0
 10 11  2  0
 11 12  1  0
 12 13  1  0
 13 14  1  0
 14 15  2  0
 14 16  1  0
 16 17  1  0
 17 18  1  0
 18 19  1  0
 19 20  1  0
 20 21  1  0
 21 22  1  0
 22 23  2  0
 23 24  1  0
 24 25  2  0
 25 26  1  0
 26 27  1  0
 27 28  2  0
 28 29  1  0
 29 30  2  0
 12 31  2  0
 31  8  1  0
 30 22  1  0
 27 23  1  0
  1 32  1  0
  1 33  1  0
  1 34  1  0
  2 35  1  0
  2 36  1  0
  3 37  1  0
  3 38  1  0
  4 39  1  0
  4 40  1  0
  5 41  1  0
  9 42  1  0
 10 43  1  0
 11 44  1  0
 13 45  1  0
 16 46  1  0
 16 47  1  0
 17 48  1  0
 17 49  1  0
 18 50  1  0
 18 51  1  0
 19 52  1  0
 19 53  1  0
 20 54  1  0
 20 55  1  0
 21 56  1  0
 25 57  1  0
 26 58  1  0
 29 59  1  0
 31 60  1  0
M  END
$$$$
