
     RDKit          3D

 24 24  0  0  0  0  0  0  0  0999 V2000
    3.2934    0.6847    0.8579 O   0  0  0  0  0  0  0  0  0  0  0  0
    2.5059   -0.3735    0.3807 C   0  0  0  0  0  0  0  0  0  0  0  0
    1.0154   -0.0043    0.4446 C   0  0  1  0  0  0  0  0  0  0  0  0
    0.8118    1.1742   -0.3361 O   0  0  0  0  0  0  0  0  0  0  0  0
   -0.4320    1.2301   -1.0189 C   0  0  2  0  0  0  0  0  0  0  0  0
   -0.7696    2.9616   -1.4636 S   0  0  0  0  0  0  0  0  0  0  0  0
   -0.9453    4.0718   -0.4324 Au  0  0  0  0  0  1  0  0  0  0  0  0
   -1.5986    0.6657   -0.1887 C   0  0  2  0  0  0  0  0  0  0  0  0
   -1.6930    1.3757    1.0213 O   0  0  0  0  0  0  0  0  0  0  0  0
   -1.3679   -0.8383    0.0895 C   0  0  1  0  0  0  0  0  0  0  0  0
   -2.0814   -1.5965   -0.8544 O   0  0  0  0  0  0  0  0  0  0  0  0
    0.1340   -1.2120    0.0252 C   0  0  2  0  0  0  0  0  0  0  0  0
    0.3843   -2.3034    0.8746 O   0  0  0  0  0  0  0  0  0  0  0  0
    3.4150    1.3165    0.1019 H   0  0  0  0  0  0  0  0  0  0  0  0
    2.7936   -0.6357   -0.6638 H   0  0  0  0  0  0  0  0  0  0  0  0
    2.7047   -1.2609    1.0181 H   0  0  0  0  0  0  0  0  0  0  0  0
    0.7798    0.2416    1.5045 H   0  0  0  0  0  0  0  0  0  0  0  0
   -0.3485    0.6663   -1.9742 H   0  0  0  0  0  0  0  0  0  0  0  0
   -2.5422    0.7996   -0.7699 H   0  0  0  0  0  0  0  0  0  0  0  0
   -2.6046    1.2126    1.3795 H   0  0  0  0  0  0  0  0  0  0  0  0
   -1.7595   -1.0662    1.1102 H   0  0  0  0  0  0  0  0  0  0  0  0
   -2.1806   -2.5095   -0.4773 H   0  0  0  0  0  0  0  0  0  0  0  0
    0.4059   -1.4825   -1.0237 H   0  0  0  0  0  0  0  0  0  0  0  0
    0.0794   -3.1174    0.3951 H   0  0  0  0  0  0  0  0  0  0  0  0
  1  2  1  0
  2  3  1  0
  3  4  1  0
  4  5  1  0
  5  6  1  0
  6  7  1  0
  5  8  1  0
  8  9  1  0
  8 10  1  0
 10 11  1  0
 10 12  1  0
 12 13  1  0
 12  3  1  0
  1 14  1  0
  2 15  1  0
  2 16  1  0
  3 17  1  1
  5 18  1  6
  8 19  1  6
  9 20  1  0
 10 21  1  1
 11 22  1  0
 12 23  1  6
 13 24  1  0
M  RAD  1   7   2
M  END
$$$$
