
     RDKit          3D

 47 50  0  0  0  0  0  0  0  0999 V2000
    9.0803    0.3114    2.1203 C   0  0  0  0  0  0  0  0  0  0  0  0
    7.8536    0.0669    1.3716 N   0  0  0  0  0  0  0  0  0  0  0  0
    7.4161    0.9610    0.3361 C   0  0  0  0  0  0  0  0  0  0  0  0
    8.1768    1.8935   -0.0420 O   0  0  0  0  0  0  0  0  0  0  0  0
    6.1014    0.8033   -0.3228 C   0  0  0  0  0  0  0  0  0  0  0  0
    5.8951    1.4042   -1.5278 N   0  0  0  0  0  0  0  0  0  0  0  0
    4.7140    1.3070   -2.1923 C   0  0  0  0  0  0  0  0  0  0  0  0
    3.6583    0.5821   -1.6400 C   0  0  0  0  0  0  0  0  0  0  0  0
    3.8208   -0.0250   -0.3850 C   0  0  0  0  0  0  0  0  0  0  0  0
    2.7966   -0.7701    0.2176 O   0  0  0  0  0  0  0  0  0  0  0  0
    1.4226   -0.5311    0.0697 C   0  0  0  0  0  0  0  0  0  0  0  0
    0.5364   -1.6231    0.1608 C   0  0  0  0  0  0  0  0  0  0  0  0
   -0.8262   -1.3688    0.0295 C   0  0  0  0  0  0  0  0  0  0  0  0
   -1.3155   -0.1131   -0.1709 C   0  0  0  0  0  0  0  0  0  0  0  0
   -0.4787    0.9955   -0.2505 C   0  0  0  0  0  0  0  0  0  0  0  0
    0.9065    0.7813   -0.1210 C   0  0  0  0  0  0  0  0  0  0  0  0
   -2.6568   -0.1398   -0.2672 N   0  0  0  0  0  0  0  0  0  0  0  0
   -2.9379   -1.4612   -0.1058 C   0  0  0  0  0  0  0  0  0  0  0  0
   -4.2642   -2.0032   -0.1752 N   0  0  0  0  0  0  0  0  0  0  0  0
   -5.4580   -1.2028   -0.1898 C   0  0  0  0  0  0  0  0  0  0  0  0
   -5.5626   -0.0303    0.5787 C   0  0  0  0  0  0  0  0  0  0  0  0
   -6.7442    0.7383    0.5690 C   0  0  0  0  0  0  0  0  0  0  0  0
   -7.8367    0.2986   -0.2128 C   0  0  0  0  0  0  0  0  0  0  0  0
   -9.3543    1.1909   -0.2795 Cl  0  0  0  0  0  0  0  0  0  0  0  0
   -7.7369   -0.8827   -0.9544 C   0  0  0  0  0  0  0  0  0  0  0  0
   -6.5603   -1.6312   -0.9380 C   0  0  0  0  0  0  0  0  0  0  0  0
   -6.8448    2.0045    1.3931 C   0  0  0  0  0  0  0  0  0  0  0  0
   -7.1179    3.0778    0.5645 F   0  0  0  0  0  0  0  0  0  0  0  0
   -5.6691    2.2723    2.0736 F   0  0  0  0  0  0  0  0  0  0  0  0
   -7.8630    1.8747    2.3202 F   0  0  0  0  0  0  0  0  0  0  0  0
   -1.8420   -2.2393    0.0680 N   0  0  0  0  0  0  0  0  0  0  0  0
    5.0530    0.0764    0.2687 C   0  0  0  0  0  0  0  0  0  0  0  0
    9.0033    1.2773    2.6625 H   0  0  0  0  0  0  0  0  0  0  0  0
    9.9467    0.3421    1.4266 H   0  0  0  0  0  0  0  0  0  0  0  0
    9.2414   -0.5026    2.8584 H   0  0  0  0  0  0  0  0  0  0  0  0
    7.3232   -0.8087    1.5747 H   0  0  0  0  0  0  0  0  0  0  0  0
    4.5972    1.7880   -3.1542 H   0  0  0  0  0  0  0  0  0  0  0  0
    2.7319    0.4863   -2.1909 H   0  0  0  0  0  0  0  0  0  0  0  0
    0.9024   -2.6292    0.3207 H   0  0  0  0  0  0  0  0  0  0  0  0
   -0.8790    1.9902   -0.3981 H   0  0  0  0  0  0  0  0  0  0  0  0
    1.5718    1.6339   -0.1496 H   0  0  0  0  0  0  0  0  0  0  0  0
   -4.3568   -3.0344   -0.3178 H   0  0  0  0  0  0  0  0  0  0  0  0
   -4.7310    0.2648    1.2034 H   0  0  0  0  0  0  0  0  0  0  0  0
   -8.5762   -1.2246   -1.5469 H   0  0  0  0  0  0  0  0  0  0  0  0
   -6.5027   -2.5432   -1.5189 H   0  0  0  0  0  0  0  0  0  0  0  0
   -1.7996   -3.2747    0.1980 H   0  0  0  0  0  0  0  0  0  0  0  0
    5.1648   -0.3833    1.2409 H   0  0  0  0  0  0  0  0  0  0  0  0
  1  2  1  0
  2  3  1  0
  3  4  2  0
  3  5  1  0
  5  6  2  0
  6  7  1  0
  7  8  2  0
  8  9  1  0
  9 10  1  0
 10 11  1  0
 11 12  2  0
 12 13  1  0
 13 14  2  0
 14 15  1  0
 15 16  2  0
 14 17  1  0
 17 18  2  0
 18 19  1  0
 19 20  1  0
 20 21  2  0
 21 22  1  0
 22 23  2  0
 23 24  1  0
 23 25  1  0
 25 26  2  0
 22 27  1  0
 27 28  1  0
 27 29  1  0
 27 30  1  0
 18 31  1  0
  9 32  2  0
 32  5  1  0
 16 11  1  0
 26 20  1  0
 31 13  1  0
  1 33  1  0
  1 34  1  0
  1 35  1  0
  2 36  1  0
  7 37  1  0
  8 38  1  0
 12 39  1  0
 15 40  1  0
 16 41  1  0
 19 42  1  0
 21 43  1  0
 25 44  1  0
 26 45  1  0
 31 46  1  0
 32 47  1  0
M  END
$$$$
