
     RDKit          3D

 69 71  0  0  0  0  0  0  0  0999 V2000
    5.2702   -0.6263    3.0695 C   0  0  0  0  0  0  0  0  0  0  0  0
    4.6132   -0.0423    1.8299 C   0  0  0  0  0  0  0  0  0  0  0  0
    3.6558    0.9389    2.2199 O   0  0  0  0  0  0  0  0  0  0  0  0
    2.8415    1.6656    1.3356 C   0  0  0  0  0  0  0  0  0  0  0  0
    1.9256    2.6136    1.8511 C   0  0  0  0  0  0  0  0  0  0  0  0
    1.1255    3.3481    0.9562 C   0  0  0  0  0  0  0  0  0  0  0  0
    1.2101    3.1353   -0.4191 C   0  0  0  0  0  0  0  0  0  0  0  0
    2.0975    2.1853   -0.9348 C   0  0  0  0  0  0  0  0  0  0  0  0
    2.0807    1.8566   -2.4034 C   0  0  0  0  0  0  0  0  0  0  0  0
    0.9754    0.8834   -2.6771 C   0  0  0  0  0  0  0  0  0  0  0  0
   -0.0122    1.2354   -3.3770 O   0  0  0  0  0  0  0  0  0  0  0  0
    1.0232   -0.4294   -2.1064 N   0  0  0  0  0  0  0  0  0  0  0  0
   -0.1526   -1.0427   -1.4820 C   0  0  1  0  0  0  0  0  0  0  0  0
   -0.2168   -2.5377   -1.8710 C   0  0  0  0  0  0  0  0  0  0  0  0
   -1.5424   -3.2225   -1.4570 C   0  0  0  0  0  0  0  0  0  0  0  0
   -1.3459   -4.7381   -1.3272 C   0  0  0  0  0  0  0  0  0  0  0  0
   -2.6602   -2.9311   -2.4690 C   0  0  0  0  0  0  0  0  0  0  0  0
   -0.0783   -0.8475    0.0304 C   0  0  0  0  0  0  0  0  0  0  0  0
    1.0168   -1.3778    0.7452 C   0  0  0  0  0  0  0  0  0  0  0  0
    1.1158   -1.2184    2.1283 C   0  0  0  0  0  0  0  0  0  0  0  0
    0.1352   -0.5158    2.8234 C   0  0  0  0  0  0  0  0  0  0  0  0
   -0.9537    0.0213    2.1390 C   0  0  0  0  0  0  0  0  0  0  0  0
   -1.0753   -0.1380    0.7495 C   0  0  0  0  0  0  0  0  0  0  0  0
   -2.2133    0.4373    0.0904 N   0  0  0  0  0  0  0  0  0  0  0  0
   -2.0843    1.8111   -0.4158 C   0  0  0  0  0  0  0  0  0  0  0  0
   -3.3896    2.3196   -1.0375 C   0  0  0  0  0  0  0  0  0  0  0  0
   -4.0867    1.1884   -1.7905 C   0  0  0  0  0  0  0  0  0  0  0  0
   -4.5106    0.0668   -0.8296 C   0  0  0  0  0  0  0  0  0  0  0  0
   -3.5402   -0.1373    0.3527 C   0  0  0  0  0  0  0  0  0  0  0  0
    2.9133    1.4592   -0.0568 C   0  0  0  0  0  0  0  0  0  0  0  0
    1.7741    2.8394    3.3130 C   0  0  0  0  0  0  0  0  0  0  0  0
    2.4607    2.0539    4.2349 O   0  0  0  0  0  0  0  0  0  0  0  0
    1.0069    3.7455    3.7380 O   0  0  0  0  0  0  0  0  0  0  0  0
    5.7830    0.1762    3.6408 H   0  0  0  0  0  0  0  0  0  0  0  0
    6.0168   -1.3927    2.7728 H   0  0  0  0  0  0  0  0  0  0  0  0
    4.5025   -1.1011    3.7167 H   0  0  0  0  0  0  0  0  0  0  0  0
    4.1115   -0.8596    1.2686 H   0  0  0  0  0  0  0  0  0  0  0  0
    5.3918    0.4254    1.1893 H   0  0  0  0  0  0  0  0  0  0  0  0
    0.4127    4.0774    1.3203 H   0  0  0  0  0  0  0  0  0  0  0  0
    0.5599    3.6924   -1.0824 H   0  0  0  0  0  0  0  0  0  0  0  0
    1.9329    2.7844   -2.9985 H   0  0  0  0  0  0  0  0  0  0  0  0
    3.0491    1.4120   -2.7189 H   0  0  0  0  0  0  0  0  0  0  0  0
    1.9641   -0.8369   -1.9041 H   0  0  0  0  0  0  0  0  0  0  0  0
   -1.0616   -0.5561   -1.8881 H   0  0  0  0  0  0  0  0  0  0  0  0
    0.6455   -3.0697   -1.4150 H   0  0  0  0  0  0  0  0  0  0  0  0
   -0.0841   -2.6325   -2.9719 H   0  0  0  0  0  0  0  0  0  0  0  0
   -1.8625   -2.8464   -0.4616 H   0  0  0  0  0  0  0  0  0  0  0  0
   -2.2999   -5.2264   -1.0338 H   0  0  0  0  0  0  0  0  0  0  0  0
   -1.0002   -5.1724   -2.2901 H   0  0  0  0  0  0  0  0  0  0  0  0
   -0.5925   -4.9605   -0.5415 H   0  0  0  0  0  0  0  0  0  0  0  0
   -2.4192   -3.3760   -3.4584 H   0  0  0  0  0  0  0  0  0  0  0  0
   -3.6204   -3.3588   -2.1098 H   0  0  0  0  0  0  0  0  0  0  0  0
   -2.7996   -1.8405   -2.6027 H   0  0  0  0  0  0  0  0  0  0  0  0
    1.8052   -1.9134    0.2335 H   0  0  0  0  0  0  0  0  0  0  0  0
    1.9619   -1.6323    2.6611 H   0  0  0  0  0  0  0  0  0  0  0  0
    0.2209   -0.3833    3.8941 H   0  0  0  0  0  0  0  0  0  0  0  0
   -1.7068    0.5708    2.6897 H   0  0  0  0  0  0  0  0  0  0  0  0
   -1.2919    1.8373   -1.1888 H   0  0  0  0  0  0  0  0  0  0  0  0
   -1.7809    2.4903    0.4100 H   0  0  0  0  0  0  0  0  0  0  0  0
   -3.1682    3.1558   -1.7354 H   0  0  0  0  0  0  0  0  0  0  0  0
   -4.0620    2.7057   -0.2399 H   0  0  0  0  0  0  0  0  0  0  0  0
   -3.3955    0.7792   -2.5606 H   0  0  0  0  0  0  0  0  0  0  0  0
   -4.9821    1.5853   -2.3158 H   0  0  0  0  0  0  0  0  0  0  0  0
   -4.6115   -0.8787   -1.4024 H   0  0  0  0  0  0  0  0  0  0  0  0
   -5.5186    0.3017   -0.4226 H   0  0  0  0  0  0  0  0  0  0  0  0
   -3.4541   -1.2250    0.5678 H   0  0  0  0  0  0  0  0  0  0  0  0
   -3.9617    0.3489    1.2594 H   0  0  0  0  0  0  0  0  0  0  0  0
    3.5845    0.7165   -0.4659 H   0  0  0  0  0  0  0  0  0  0  0  0
    2.3514    2.2033    5.2308 H   0  0  0  0  0  0  0  0  0  0  0  0
  1  2  1  0
  2  3  1  0
  3  4  1  0
  4  5  2  0
  5  6  1  0
  6  7  2  0
  7  8  1  0
  8  9  1  0
  9 10  1  0
 10 11  2  0
 10 12  1  0
 12 13  1  0
 13 14  1  0
 14 15  1  0
 15 16  1  0
 15 17  1  0
 13 18  1  0
 18 19  2  0
 19 20  1  0
 20 21  2  0
 21 22  1  0
 22 23  2  0
 23 24  1  0
 24 25  1  0
 25 26  1  0
 26 27  1  0
 27 28  1  0
 28 29  1  0
  8 30  2  0
  5 31  1  0
 31 32  1  0
 31 33  2  0
 30  4  1  0
 23 18  1  0
 29 24  1  0
  1 34  1  0
  1 35  1  0
  1 36  1  0
  2 37  1  0
  2 38  1  0
  6 39  1  0
  7 40  1  0
  9 41  1  0
  9 42  1  0
 12 43  1  0
 13 44  1  6
 14 45  1  0
 14 46  1  0
 15 47  1  0
 16 48  1  0
 16 49  1  0
 16 50  1  0
 17 51  1  0
 17 52  1  0
 17 53  1  0
 19 54  1  0
 20 55  1  0
 21 56  1  0
 22 57  1  0
 25 58  1  0
 25 59  1  0
 26 60  1  0
 26 61  1  0
 27 62  1  0
 27 63  1  0
 28 64  1  0
 28 65  1  0
 29 66  1  0
 29 67  1  0
 30 68  1  0
 32 69  1  0
M  END
$$$$
