
     RDKit          3D

 43 44  0  0  0  0  0  0  0  0999 V2000
   -1.0695   -2.4595   -0.1267 C   0  0  2  0  0  0  0  0  0  0  0  0
   -0.5351   -3.8322    0.3056 C   0  0  0  0  0  0  0  0  0  0  0  0
   -0.3697   -2.0307   -1.2655 O   0  0  0  0  0  0  0  0  0  0  0  0
   -0.9664   -1.4125    1.0221 C   0  0  1  0  0  0  0  0  0  0  0  0
    0.4484   -0.8031    1.2169 C   0  0  0  0  0  0  0  0  0  0  0  0
    0.7628    0.4074    0.3140 C   0  0  0  0  0  0  0  0  0  0  0  0
    2.2066    0.9071    0.4865 C   0  0  0  0  0  0  0  0  0  0  0  0
    3.2201    0.0476   -0.2897 C   0  0  0  0  0  0  0  0  0  0  0  0
    4.6706    0.5028   -0.0664 C   0  0  0  0  0  0  0  0  0  0  0  0
    4.9859    1.8342   -0.7478 C   0  0  0  0  0  0  0  0  0  0  0  0
   -1.9982   -0.3655    0.9217 N   0  0  0  0  0  0  0  0  0  0  0  0
   -2.6269    0.2351    1.9673 C   0  0  0  0  0  0  0  0  0  0  0  0
   -3.4795    1.2284    1.5952 N   0  0  0  0  0  0  0  0  0  0  0  0
   -3.3575    1.2374    0.2560 C   0  0  0  0  0  0  0  0  0  0  0  0
   -3.9699    2.0648   -0.6787 C   0  0  0  0  0  0  0  0  0  0  0  0
   -4.9036    3.0736   -0.2932 N   0  0  0  0  0  0  0  0  0  0  0  0
   -3.6430    1.8862   -1.9933 N   0  0  0  0  0  0  0  0  0  0  0  0
   -2.7409    0.9283   -2.3802 C   0  0  0  0  0  0  0  0  0  0  0  0
   -2.1438    0.1233   -1.4510 N   0  0  0  0  0  0  0  0  0  0  0  0
   -2.4738    0.2954   -0.1480 C   0  0  0  0  0  0  0  0  0  0  0  0
   -2.1491   -2.5915   -0.3755 H   0  0  0  0  0  0  0  0  0  0  0  0
   -0.6642   -4.5628   -0.5210 H   0  0  0  0  0  0  0  0  0  0  0  0
    0.5440   -3.7770    0.5582 H   0  0  0  0  0  0  0  0  0  0  0  0
   -1.0972   -4.2085    1.1866 H   0  0  0  0  0  0  0  0  0  0  0  0
   -0.7297   -2.5421   -2.0368 H   0  0  0  0  0  0  0  0  0  0  0  0
   -1.1811   -1.9712    1.9619 H   0  0  0  0  0  0  0  0  0  0  0  0
    1.2097   -1.5957    1.0759 H   0  0  0  0  0  0  0  0  0  0  0  0
    0.5348   -0.4672    2.2740 H   0  0  0  0  0  0  0  0  0  0  0  0
    0.0843    1.2420    0.5940 H   0  0  0  0  0  0  0  0  0  0  0  0
    0.5793    0.1749   -0.7541 H   0  0  0  0  0  0  0  0  0  0  0  0
    2.2505    1.9483    0.1024 H   0  0  0  0  0  0  0  0  0  0  0  0
    2.4725    0.9347    1.5661 H   0  0  0  0  0  0  0  0  0  0  0  0
    3.1450   -1.0077    0.0453 H   0  0  0  0  0  0  0  0  0  0  0  0
    2.9828    0.0708   -1.3760 H   0  0  0  0  0  0  0  0  0  0  0  0
    4.8842    0.5808    1.0218 H   0  0  0  0  0  0  0  0  0  0  0  0
    5.3493   -0.2709   -0.4866 H   0  0  0  0  0  0  0  0  0  0  0  0
    4.4319    2.6652   -0.2646 H   0  0  0  0  0  0  0  0  0  0  0  0
    4.7241    1.7912   -1.8264 H   0  0  0  0  0  0  0  0  0  0  0  0
    6.0721    2.0462   -0.6569 H   0  0  0  0  0  0  0  0  0  0  0  0
   -2.4584   -0.0379    3.0012 H   0  0  0  0  0  0  0  0  0  0  0  0
   -5.1572    3.2171    0.7096 H   0  0  0  0  0  0  0  0  0  0  0  0
   -5.3462    3.6826   -1.0166 H   0  0  0  0  0  0  0  0  0  0  0  0
   -2.4983    0.8107   -3.4272 H   0  0  0  0  0  0  0  0  0  0  0  0
  1  2  1  0
  1  3  1  0
  1  4  1  0
  4  5  1  0
  5  6  1  0
  6  7  1  0
  7  8  1  0
  8  9  1  0
  9 10  1  0
  4 11  1  0
 11 12  1  0
 12 13  2  0
 13 14  1  0
 14 15  2  0
 15 16  1  0
 15 17  1  0
 17 18  2  0
 18 19  1  0
 19 20  2  0
 20 11  1  0
 20 14  1  0
  1 21  1  6
  2 22  1  0
  2 23  1  0
  2 24  1  0
  3 25  1  0
  4 26  1  1
  5 27  1  0
  5 28  1  0
  6 29  1  0
  6 30  1  0
  7 31  1  0
  7 32  1  0
  8 33  1  0
  8 34  1  0
  9 35  1  0
  9 36  1  0
 10 37  1  0
 10 38  1  0
 10 39  1  0
 12 40  1  0
 16 41  1  0
 16 42  1  0
 18 43  1  0
M  END
$$$$
