
     RDKit          3D

 18 17  0  0  0  0  0  0  0  0999 V2000
    1.3313   -1.5289   -0.9633 O   0  0  0  0  0  0  0  0  0  0  0  0
    0.5661   -0.8756    0.0188 C   0  0  1  0  0  0  0  0  0  0  0  0
    1.4769    0.1037    0.7776 C   0  0  0  0  0  0  0  0  0  0  0  0
    2.2222    1.3514   -0.3250 S   0  0  0  0  0  0  0  0  0  0  0  0
   -0.6735   -0.2048   -0.6407 C   0  0  1  0  0  0  0  0  0  0  0  0
   -1.3744   -1.1553   -1.4051 O   0  0  0  0  0  0  0  0  0  0  0  0
   -1.6386    0.4440    0.3805 C   0  0  0  0  0  0  0  0  0  0  0  0
   -1.2436    2.1985    0.6865 S   0  0  0  0  0  0  0  0  0  0  0  0
    0.9194   -2.4200   -1.1121 H   0  0  0  0  0  0  0  0  0  0  0  0
    0.2074   -1.6238    0.7657 H   0  0  0  0  0  0  0  0  0  0  0  0
    0.9195    0.6073    1.5931 H   0  0  0  0  0  0  0  0  0  0  0  0
    2.3008   -0.4702    1.2532 H   0  0  0  0  0  0  0  0  0  0  0  0
    2.9113    1.9701    0.7352 H   0  0  0  0  0  0  0  0  0  0  0  0
   -0.3237    0.5732   -1.3520 H   0  0  0  0  0  0  0  0  0  0  0  0
   -1.7029   -1.8565   -0.7825 H   0  0  0  0  0  0  0  0  0  0  0  0
   -1.6250   -0.1088    1.3438 H   0  0  0  0  0  0  0  0  0  0  0  0
   -2.6790    0.4068   -0.0088 H   0  0  0  0  0  0  0  0  0  0  0  0
   -1.5944    2.5889   -0.6202 H   0  0  0  0  0  0  0  0  0  0  0  0
  1  2  1  0
  2  3  1  0
  3  4  1  0
  2  5  1  0
  5  6  1  0
  5  7  1  0
  7  8  1  0
  1  9  1  0
  2 10  1  1
  3 11  1  0
  3 12  1  0
  4 13  1  0
  5 14  1  6
  6 15  1  0
  7 16  1  0
  7 17  1  0
  8 18  1  0
M  END
$$$$
