
     RDKit          3D

 44 45  0  0  0  0  0  0  0  0999 V2000
   -1.0502    2.0358    0.9948 C   0  0  0  0  0  0  0  0  0  0  0  0
   -0.6730    0.6616    0.4087 C   0  0  1  0  0  0  0  0  0  0  0  0
   -1.5918    0.2980   -0.7857 C   0  0  0  0  0  0  0  0  0  0  0  0
   -3.0176    0.0682   -0.3497 C   0  0  0  0  0  0  0  0  0  0  0  0
   -3.9853    1.0728   -0.5150 C   0  0  0  0  0  0  0  0  0  0  0  0
   -5.3044    0.8645   -0.0871 C   0  0  0  0  0  0  0  0  0  0  0  0
   -6.2650    1.8607   -0.2519 O   0  0  0  0  0  0  0  0  0  0  0  0
   -5.6606   -0.3510    0.5115 C   0  0  0  0  0  0  0  0  0  0  0  0
   -6.9727   -0.5549    0.9349 O   0  0  0  0  0  0  0  0  0  0  0  0
   -4.6960   -1.3532    0.6823 C   0  0  0  0  0  0  0  0  0  0  0  0
   -3.3816   -1.1443    0.2567 C   0  0  0  0  0  0  0  0  0  0  0  0
    0.8485    0.5925    0.0581 C   0  0  2  0  0  0  0  0  0  0  0  0
    1.2239    1.4508   -1.1659 C   0  0  0  0  0  0  0  0  0  0  0  0
    1.3222   -0.8716   -0.1253 C   0  0  0  0  0  0  0  0  0  0  0  0
    2.8263   -0.9880   -0.0900 C   0  0  0  0  0  0  0  0  0  0  0  0
    3.5621   -1.0885   -1.2821 C   0  0  0  0  0  0  0  0  0  0  0  0
    4.9587   -1.1740   -1.2507 C   0  0  0  0  0  0  0  0  0  0  0  0
    5.6583   -1.2739   -2.4528 O   0  0  0  0  0  0  0  0  0  0  0  0
    5.6326   -1.1566   -0.0174 C   0  0  0  0  0  0  0  0  0  0  0  0
    7.0234   -1.2421    0.0208 O   0  0  0  0  0  0  0  0  0  0  0  0
    4.9002   -1.0515    1.1730 C   0  0  0  0  0  0  0  0  0  0  0  0
    3.5063   -0.9653    1.1374 C   0  0  0  0  0  0  0  0  0  0  0  0
   -0.3424    2.3263    1.7998 H   0  0  0  0  0  0  0  0  0  0  0  0
   -2.0641    1.9952    1.4455 H   0  0  0  0  0  0  0  0  0  0  0  0
   -1.0494    2.8223    0.2119 H   0  0  0  0  0  0  0  0  0  0  0  0
   -0.8548   -0.0779    1.2209 H   0  0  0  0  0  0  0  0  0  0  0  0
   -1.2335   -0.6284   -1.2796 H   0  0  0  0  0  0  0  0  0  0  0  0
   -1.5552    1.1009   -1.5541 H   0  0  0  0  0  0  0  0  0  0  0  0
   -3.7141    2.0175   -0.9703 H   0  0  0  0  0  0  0  0  0  0  0  0
   -6.0378    2.7506   -0.6803 H   0  0  0  0  0  0  0  0  0  0  0  0
   -7.2598   -1.4232    1.3715 H   0  0  0  0  0  0  0  0  0  0  0  0
   -4.9636   -2.2937    1.1469 H   0  0  0  0  0  0  0  0  0  0  0  0
   -2.6459   -1.9262    0.4006 H   0  0  0  0  0  0  0  0  0  0  0  0
    1.4033    1.0059    0.9305 H   0  0  0  0  0  0  0  0  0  0  0  0
    2.3276    1.5051   -1.2712 H   0  0  0  0  0  0  0  0  0  0  0  0
    0.8566    2.4904   -1.0515 H   0  0  0  0  0  0  0  0  0  0  0  0
    0.8057    1.0188   -2.0994 H   0  0  0  0  0  0  0  0  0  0  0  0
    0.9073   -1.5074    0.6872 H   0  0  0  0  0  0  0  0  0  0  0  0
    0.9364   -1.2882   -1.0803 H   0  0  0  0  0  0  0  0  0  0  0  0
    3.0518   -1.0955   -2.2376 H   0  0  0  0  0  0  0  0  0  0  0  0
    6.6688   -1.3375   -2.4836 H   0  0  0  0  0  0  0  0  0  0  0  0
    7.5318   -1.2310    0.8973 H   0  0  0  0  0  0  0  0  0  0  0  0
    5.4112   -1.0344    2.1273 H   0  0  0  0  0  0  0  0  0  0  0  0
    2.9556   -0.8794    2.0662 H   0  0  0  0  0  0  0  0  0  0  0  0
  1  2  1  0
  2  3  1  0
  3  4  1  0
  4  5  2  0
  5  6  1  0
  6  7  1  0
  6  8  2  0
  8  9  1  0
  8 10  1  0
 10 11  2  0
  2 12  1  0
 12 13  1  0
 12 14  1  0
 14 15  1  0
 15 16  2  0
 16 17  1  0
 17 18  1  0
 17 19  2  0
 19 20  1  0
 19 21  1  0
 21 22  2  0
 11  4  1  0
 22 15  1  0
  1 23  1  0
  1 24  1  0
  1 25  1  0
  2 26  1  1
  3 27  1  0
  3 28  1  0
  5 29  1  0
  7 30  1  0
  9 31  1  0
 10 32  1  0
 11 33  1  0
 12 34  1  1
 13 35  1  0
 13 36  1  0
 13 37  1  0
 14 38  1  0
 14 39  1  0
 16 40  1  0
 18 41  1  0
 20 42  1  0
 21 43  1  0
 22 44  1  0
M  END
$$$$
