
     RDKit          3D

 27 27  0  0  0  0  0  0  0  0999 V2000
   -4.5086    0.5866    0.2759 C   0  0  0  0  0  0  0  0  0  0  0  0
   -3.7616   -0.4276   -0.5838 C   0  0  0  0  0  0  0  0  0  0  0  0
   -2.2837   -0.3793   -0.3029 C   0  0  0  0  0  0  0  0  0  0  0  0
   -1.4560    0.5021   -1.0150 C   0  0  0  0  0  0  0  0  0  0  0  0
   -0.0883    0.5703   -0.7332 C   0  0  0  0  0  0  0  0  0  0  0  0
    0.4735   -0.2462    0.2646 C   0  0  0  0  0  0  0  0  0  0  0  0
    1.8721   -0.1779    0.5916 N   0  0  0  0  0  0  0  0  0  0  0  0
    2.9113    0.0772   -0.3643 C   0  0  0  0  0  0  0  0  0  0  0  0
    2.6787    0.0244   -1.6013 O   0  0  0  0  0  0  0  0  0  0  0  0
    4.5796    0.3948    0.2003 P   0  0  0  0  0  5  0  0  0  0  0  0
    4.5670    1.6690    1.3139 O   0  0  0  0  0  0  0  0  0  0  0  0
    5.1944   -0.9988    0.9373 O   0  0  0  0  0  0  0  0  0  0  0  0
    5.4523    0.7687   -0.9763 O   0  0  0  0  0  0  0  0  0  0  0  0
   -0.3633   -1.0990    0.9994 C   0  0  0  0  0  0  0  0  0  0  0  0
   -1.7305   -1.1681    0.7171 C   0  0  0  0  0  0  0  0  0  0  0  0
   -4.1497    1.6153    0.0579 H   0  0  0  0  0  0  0  0  0  0  0  0
   -5.5951    0.5344    0.0533 H   0  0  0  0  0  0  0  0  0  0  0  0
   -4.3552    0.3655    1.3539 H   0  0  0  0  0  0  0  0  0  0  0  0
   -4.1570   -1.4459   -0.3764 H   0  0  0  0  0  0  0  0  0  0  0  0
   -3.9539   -0.2108   -1.6572 H   0  0  0  0  0  0  0  0  0  0  0  0
   -1.8719    1.1438   -1.7820 H   0  0  0  0  0  0  0  0  0  0  0  0
    0.5202    1.2816   -1.2753 H   0  0  0  0  0  0  0  0  0  0  0  0
    2.1604   -0.4100    1.5691 H   0  0  0  0  0  0  0  0  0  0  0  0
    4.1020    1.3060    2.1093 H   0  0  0  0  0  0  0  0  0  0  0  0
    6.0745   -0.7253    1.3001 H   0  0  0  0  0  0  0  0  0  0  0  0
    0.0473   -1.7166    1.7884 H   0  0  0  0  0  0  0  0  0  0  0  0
   -2.3586   -1.8343    1.2958 H   0  0  0  0  0  0  0  0  0  0  0  0
  1  2  1  0
  2  3  1  0
  3  4  2  0
  4  5  1  0
  5  6  2  0
  6  7  1  0
  7  8  1  0
  8  9  2  0
  8 10  1  0
 10 11  1  0
 10 12  1  0
 10 13  2  0
  6 14  1  0
 14 15  2  0
 15  3  1  0
  1 16  1  0
  1 17  1  0
  1 18  1  0
  2 19  1  0
  2 20  1  0
  4 21  1  0
  5 22  1  0
  7 23  1  0
 11 24  1  0
 12 25  1  0
 14 26  1  0
 15 27  1  0
M  END
$$$$
