
     RDKit          3D

 36 37  0  0  0  0  0  0  0  0999 V2000
    5.7786    1.0589    1.3364 O   0  0  0  0  0  0  0  0  0  0  0  0
    4.7231    1.8852    0.9641 C   0  0  0  0  0  0  0  0  0  0  0  0
    4.9174    2.8303    0.1541 O   0  0  0  0  0  0  0  0  0  0  0  0
    3.3516    1.6341    1.5034 C   0  0  0  0  0  0  0  0  0  0  0  0
    2.5038    1.1130    0.4830 O   0  0  0  0  0  0  0  0  0  0  0  0
    2.6159   -0.1880   -0.0200 C   0  0  0  0  0  0  0  0  0  0  0  0
    3.4894   -0.9794    0.4297 O   0  0  0  0  0  0  0  0  0  0  0  0
    1.6702   -0.6544   -1.0812 C   0  0  0  0  0  0  0  0  0  0  0  0
    0.6210   -1.5641   -0.4885 C   0  0  0  0  0  0  0  0  0  0  0  0
    0.8731   -2.9475   -0.4523 C   0  0  0  0  0  0  0  0  0  0  0  0
   -0.0658   -3.8284    0.0855 C   0  0  0  0  0  0  0  0  0  0  0  0
   -1.2641   -3.3412    0.6033 C   0  0  0  0  0  0  0  0  0  0  0  0
   -1.5270   -1.9709    0.5892 C   0  0  0  0  0  0  0  0  0  0  0  0
   -0.5947   -1.0650    0.0459 C   0  0  0  0  0  0  0  0  0  0  0  0
   -0.8689    0.3503    0.0654 N   0  0  0  0  0  0  0  0  0  0  0  0
   -2.1956    0.8969    0.1342 C   0  0  0  0  0  0  0  0  0  0  0  0
   -2.5369    1.7740    1.1819 C   0  0  0  0  0  0  0  0  0  0  0  0
   -1.3739    2.1850    2.4359 Cl  0  0  0  0  0  0  0  0  0  0  0  0
   -3.8268    2.3110    1.2548 C   0  0  0  0  0  0  0  0  0  0  0  0
   -4.7775    1.9906    0.2845 C   0  0  0  0  0  0  0  0  0  0  0  0
   -4.4424    1.1380   -0.7688 C   0  0  0  0  0  0  0  0  0  0  0  0
   -3.1562    0.5931   -0.8544 C   0  0  0  0  0  0  0  0  0  0  0  0
   -2.7621   -0.4133   -2.2431 Cl  0  0  0  0  0  0  0  0  0  0  0  0
    6.7109    1.2105    0.9705 H   0  0  0  0  0  0  0  0  0  0  0  0
    2.9255    2.5927    1.8668 H   0  0  0  0  0  0  0  0  0  0  0  0
    3.3935    0.9308    2.3633 H   0  0  0  0  0  0  0  0  0  0  0  0
    2.2455   -1.1913   -1.8669 H   0  0  0  0  0  0  0  0  0  0  0  0
    1.2010    0.2157   -1.5871 H   0  0  0  0  0  0  0  0  0  0  0  0
    1.8008   -3.3459   -0.8447 H   0  0  0  0  0  0  0  0  0  0  0  0
    0.1383   -4.8912    0.1038 H   0  0  0  0  0  0  0  0  0  0  0  0
   -1.9883   -4.0262    1.0249 H   0  0  0  0  0  0  0  0  0  0  0  0
   -2.4555   -1.6167    1.0179 H   0  0  0  0  0  0  0  0  0  0  0  0
   -0.0744    1.0178    0.1708 H   0  0  0  0  0  0  0  0  0  0  0  0
   -4.0942    2.9766    2.0657 H   0  0  0  0  0  0  0  0  0  0  0  0
   -5.7736    2.4098    0.3445 H   0  0  0  0  0  0  0  0  0  0  0  0
   -5.1817    0.9092   -1.5259 H   0  0  0  0  0  0  0  0  0  0  0  0
  1  2  1  0
  2  3  2  0
  2  4  1  0
  4  5  1  0
  5  6  1  0
  6  7  2  0
  6  8  1  0
  8  9  1  0
  9 10  2  0
 10 11  1  0
 11 12  2  0
 12 13  1  0
 13 14  2  0
 14 15  1  0
 15 16  1  0
 16 17  2  0
 17 18  1  0
 17 19  1  0
 19 20  2  0
 20 21  1  0
 21 22  2  0
 22 23  1  0
 14  9  1  0
 22 16  1  0
  1 24  1  0
  4 25  1  0
  4 26  1  0
  8 27  1  0
  8 28  1  0
 10 29  1  0
 11 30  1  0
 12 31  1  0
 13 32  1  0
 15 33  1  0
 19 34  1  0
 20 35  1  0
 21 36  1  0
M  END
$$$$
