
     RDKit          3D

 20 19  0  0  0  0  0  0  0  0999 V2000
    3.3380    0.2682   -0.8661 C   0  0  0  0  0  0  0  0  0  0  0  0
    2.0832    0.6583    0.3937 S   0  0  0  0  0  0  0  0  0  0  0  0
    0.6800    0.6196   -0.7767 C   0  0  0  0  0  0  0  0  0  0  0  0
   -0.6468    0.9034   -0.0598 C   0  0  0  0  0  0  0  0  0  0  0  0
   -1.0834   -0.2316    0.8961 C   0  0  1  0  0  0  0  0  0  0  0  0
   -2.2660    0.1620    1.6642 N   0  0  0  0  0  0  0  0  0  0  0  0
   -1.3828   -1.4973    0.1423 C   0  0  0  0  0  0  0  0  0  0  0  0
   -2.4221   -1.5300   -0.7832 O   0  0  0  0  0  0  0  0  0  0  0  0
   -0.6885   -2.5300    0.3422 O   0  0  0  0  0  0  0  0  0  0  0  0
    3.3430    1.0490   -1.6549 H   0  0  0  0  0  0  0  0  0  0  0  0
    3.1279   -0.7228   -1.3196 H   0  0  0  0  0  0  0  0  0  0  0  0
    4.3368    0.2379   -0.3848 H   0  0  0  0  0  0  0  0  0  0  0  0
    0.8396    1.4048   -1.5464 H   0  0  0  0  0  0  0  0  0  0  0  0
    0.6392   -0.3636   -1.2916 H   0  0  0  0  0  0  0  0  0  0  0  0
   -0.5449    1.8515    0.5122 H   0  0  0  0  0  0  0  0  0  0  0  0
   -1.4366    1.0668   -0.8258 H   0  0  0  0  0  0  0  0  0  0  0  0
   -0.2610   -0.4332    1.6180 H   0  0  0  0  0  0  0  0  0  0  0  0
   -3.0131    0.4944    1.0109 H   0  0  0  0  0  0  0  0  0  0  0  0
   -2.0117    0.9683    2.2803 H   0  0  0  0  0  0  0  0  0  0  0  0
   -2.6308   -2.3756   -1.3004 H   0  0  0  0  0  0  0  0  0  0  0  0
  1  2  1  0
  2  3  1  0
  3  4  1  0
  4  5  1  0
  5  6  1  0
  5  7  1  0
  7  8  1  0
  7  9  2  0
  1 10  1  0
  1 11  1  0
  1 12  1  0
  3 13  1  0
  3 14  1  0
  4 15  1  0
  4 16  1  0
  5 17  1  1
  6 18  1  0
  6 19  1  0
  8 20  1  0
M  END
$$$$
