
     RDKit          3D

 40 41  0  0  0  0  0  0  0  0999 V2000
    1.1511    1.6528   -0.0819 N   0  0  0  0  0  0  0  0  0  0  0  0
    2.3519    1.0353   -0.2425 O   0  0  0  0  0  0  0  0  0  0  0  0
    2.2501   -0.2182    0.3925 C   0  0  0  0  0  0  0  0  0  0  0  0
    3.5995   -0.9447    0.3097 C   0  0  1  0  0  0  0  0  0  0  0  0
    4.5605   -0.2485    1.0605 O   0  0  0  0  0  0  0  0  0  0  0  0
    3.4912   -2.3765    0.8524 C   0  0  0  0  0  0  0  0  0  0  0  0
    2.6445   -3.1541    0.0486 O   0  0  0  0  0  0  0  0  0  0  0  0
    0.1170    1.5074   -1.0617 C   0  0  0  0  0  0  0  0  0  0  0  0
    0.3133    0.7824   -2.0743 O   0  0  0  0  0  0  0  0  0  0  0  0
   -1.1872    2.1758   -0.8827 C   0  0  0  0  0  0  0  0  0  0  0  0
   -1.2197    3.5365   -0.5390 C   0  0  0  0  0  0  0  0  0  0  0  0
   -2.4377    4.2157   -0.4454 C   0  0  0  0  0  0  0  0  0  0  0  0
   -2.4513    6.0728    0.0090 Br  0  0  0  0  0  0  0  0  0  0  0  0
   -3.6359    3.5406   -0.6993 C   0  0  0  0  0  0  0  0  0  0  0  0
   -4.8201    4.1977   -0.6190 F   0  0  0  0  0  0  0  0  0  0  0  0
   -3.6186    2.1816   -1.0264 C   0  0  0  0  0  0  0  0  0  0  0  0
   -4.7900    1.5311   -1.2415 F   0  0  0  0  0  0  0  0  0  0  0  0
   -2.4031    1.4837   -1.0965 C   0  0  0  0  0  0  0  0  0  0  0  0
   -2.4232    0.0702   -1.3572 N   0  0  0  0  0  0  0  0  0  0  0  0
   -1.8149   -0.9044   -0.4878 C   0  0  0  0  0  0  0  0  0  0  0  0
   -1.5176   -2.1881   -0.9774 C   0  0  0  0  0  0  0  0  0  0  0  0
   -1.7794   -2.5074   -2.2698 F   0  0  0  0  0  0  0  0  0  0  0  0
   -0.9335   -3.1451   -0.1405 C   0  0  0  0  0  0  0  0  0  0  0  0
   -0.6506   -2.8348    1.1928 C   0  0  0  0  0  0  0  0  0  0  0  0
    0.2107   -4.2859    2.4578 I   0  0  0  0  0  0  0  0  0  0  0  0
   -0.9497   -1.5644    1.6908 C   0  0  0  0  0  0  0  0  0  0  0  0
   -1.5321   -0.6042    0.8592 C   0  0  0  0  0  0  0  0  0  0  0  0
    0.9937    2.2483    0.7624 H   0  0  0  0  0  0  0  0  0  0  0  0
    1.9685   -0.0928    1.4640 H   0  0  0  0  0  0  0  0  0  0  0  0
    1.4744   -0.8342   -0.1160 H   0  0  0  0  0  0  0  0  0  0  0  0
    3.9205   -1.0017   -0.7575 H   0  0  0  0  0  0  0  0  0  0  0  0
    4.8683    0.5127    0.5021 H   0  0  0  0  0  0  0  0  0  0  0  0
    3.0870   -2.3579    1.8874 H   0  0  0  0  0  0  0  0  0  0  0  0
    4.5031   -2.8402    0.8969 H   0  0  0  0  0  0  0  0  0  0  0  0
    3.1537   -3.3714   -0.7753 H   0  0  0  0  0  0  0  0  0  0  0  0
   -0.2972    4.0793   -0.3722 H   0  0  0  0  0  0  0  0  0  0  0  0
   -2.9908   -0.2666   -2.1674 H   0  0  0  0  0  0  0  0  0  0  0  0
   -0.7024   -4.1289   -0.5277 H   0  0  0  0  0  0  0  0  0  0  0  0
   -0.7351   -1.3214    2.7233 H   0  0  0  0  0  0  0  0  0  0  0  0
   -1.7690    0.3674    1.2722 H   0  0  0  0  0  0  0  0  0  0  0  0
  1  2  1  0
  2  3  1  0
  3  4  1  0
  4  5  1  0
  4  6  1  0
  6  7  1  0
  1  8  1  0
  8  9  2  0
  8 10  1  0
 10 11  2  0
 11 12  1  0
 12 13  1  0
 12 14  2  0
 14 15  1  0
 14 16  1  0
 16 17  1  0
 16 18  2  0
 18 19  1  0
 19 20  1  0
 20 21  2  0
 21 22  1  0
 21 23  1  0
 23 24  2  0
 24 25  1  0
 24 26  1  0
 26 27  2  0
 18 10  1  0
 27 20  1  0
  1 28  1  0
  3 29  1  0
  3 30  1  0
  4 31  1  6
  5 32  1  0
  6 33  1  0
  6 34  1  0
  7 35  1  0
 11 36  1  0
 19 37  1  0
 23 38  1  0
 26 39  1  0
 27 40  1  0
M  END
$$$$
