
     RDKit          3D

 41 43  0  0  0  0  0  0  0  0999 V2000
    1.3867   -1.7759    0.7883 N   0  0  0  0  0  0  0  0  0  0  0  0
    2.5998   -1.8432   -0.0419 C   0  0  0  0  0  0  0  0  0  0  0  0
    3.7087   -0.9351    0.4943 C   0  0  0  0  0  0  0  0  0  0  0  0
    3.2196    0.5060    0.5989 C   0  0  0  0  0  0  0  0  0  0  0  0
    1.9432    0.5797    1.4397 C   0  0  0  0  0  0  0  0  0  0  0  0
    0.8402   -0.4106    0.9716 C   0  0  0  0  0  0  0  0  0  0  0  0
   -0.0182    0.0652   -0.2625 C   0  0  0  0  0  0  0  0  0  0  0  0
    0.8733    0.2764   -1.3374 O   0  0  0  0  0  0  0  0  0  0  0  0
   -1.0745   -0.9804   -0.7046 C   0  0  0  0  0  0  0  0  0  0  0  0
   -1.5159   -2.0288    0.1419 C   0  0  0  0  0  0  0  0  0  0  0  0
   -2.5001   -2.9279   -0.2781 C   0  0  0  0  0  0  0  0  0  0  0  0
   -3.0891   -2.7892   -1.5328 C   0  0  0  0  0  0  0  0  0  0  0  0
   -2.7087   -1.7389   -2.3648 C   0  0  0  0  0  0  0  0  0  0  0  0
   -1.7249   -0.8358   -1.9533 C   0  0  0  0  0  0  0  0  0  0  0  0
   -0.7449    1.3711    0.1165 C   0  0  0  0  0  0  0  0  0  0  0  0
   -0.2436    2.6346   -0.2713 C   0  0  0  0  0  0  0  0  0  0  0  0
   -0.8951    3.8103    0.1121 C   0  0  0  0  0  0  0  0  0  0  0  0
   -2.0431    3.7509    0.9021 C   0  0  0  0  0  0  0  0  0  0  0  0
   -2.5359    2.5155    1.3222 C   0  0  0  0  0  0  0  0  0  0  0  0
   -1.8893    1.3360    0.9436 C   0  0  0  0  0  0  0  0  0  0  0  0
    1.6166   -2.1701    1.7315 H   0  0  0  0  0  0  0  0  0  0  0  0
    2.9727   -2.8903   -0.0450 H   0  0  0  0  0  0  0  0  0  0  0  0
    2.3674   -1.5962   -1.0970 H   0  0  0  0  0  0  0  0  0  0  0  0
    4.5852   -0.9792   -0.1873 H   0  0  0  0  0  0  0  0  0  0  0  0
    4.0318   -1.2944    1.4961 H   0  0  0  0  0  0  0  0  0  0  0  0
    3.0497    0.9282   -0.4129 H   0  0  0  0  0  0  0  0  0  0  0  0
    4.0085    1.1223    1.0818 H   0  0  0  0  0  0  0  0  0  0  0  0
    1.5714    1.6234    1.4585 H   0  0  0  0  0  0  0  0  0  0  0  0
    2.2122    0.3288    2.4900 H   0  0  0  0  0  0  0  0  0  0  0  0
    0.1364   -0.4552    1.8338 H   0  0  0  0  0  0  0  0  0  0  0  0
    0.4234    0.7843   -2.0590 H   0  0  0  0  0  0  0  0  0  0  0  0
   -1.1263   -2.1625    1.1388 H   0  0  0  0  0  0  0  0  0  0  0  0
   -2.8153   -3.7287    0.3785 H   0  0  0  0  0  0  0  0  0  0  0  0
   -3.8543   -3.4847   -1.8526 H   0  0  0  0  0  0  0  0  0  0  0  0
   -3.1865   -1.6150   -3.3282 H   0  0  0  0  0  0  0  0  0  0  0  0
   -1.4981   -0.0130   -2.6150 H   0  0  0  0  0  0  0  0  0  0  0  0
    0.6638    2.7226   -0.8537 H   0  0  0  0  0  0  0  0  0  0  0  0
   -0.5024    4.7705   -0.1966 H   0  0  0  0  0  0  0  0  0  0  0  0
   -2.5438    4.6632    1.1996 H   0  0  0  0  0  0  0  0  0  0  0  0
   -3.4173    2.4711    1.9490 H   0  0  0  0  0  0  0  0  0  0  0  0
   -2.2834    0.3953    1.3038 H   0  0  0  0  0  0  0  0  0  0  0  0
  1  2  1  0
  2  3  1  0
  3  4  1  0
  4  5  1  0
  5  6  1  0
  6  7  1  0
  7  8  1  0
  7  9  1  0
  9 10  2  0
 10 11  1  0
 11 12  2  0
 12 13  1  0
 13 14  2  0
  7 15  1  0
 15 16  2  0
 16 17  1  0
 17 18  2  0
 18 19  1  0
 19 20  2  0
  6  1  1  0
 14  9  1  0
 20 15  1  0
  1 21  1  0
  2 22  1  0
  2 23  1  0
  3 24  1  0
  3 25  1  0
  4 26  1  0
  4 27  1  0
  5 28  1  0
  5 29  1  0
  6 30  1  0
  8 31  1  0
 10 32  1  0
 11 33  1  0
 12 34  1  0
 13 35  1  0
 14 36  1  0
 16 37  1  0
 17 38  1  0
 18 39  1  0
 19 40  1  0
 20 41  1  0
M  END
$$$$
