
     RDKit          3D

 75 78  0  0  0  0  0  0  0  0999 V2000
   -6.3137    0.3443   -2.5814 C   0  0  0  0  0  0  0  0  0  0  0  0
   -5.4014   -0.1972   -1.4850 C   0  0  0  0  0  0  0  0  0  0  0  0
   -4.7138   -1.4954   -1.9282 C   0  0  0  0  0  0  0  0  0  0  0  0
   -3.8482   -2.0986   -0.8128 C   0  0  0  0  0  0  0  0  0  0  0  0
   -2.7427   -1.1999   -0.4434 N   0  0  0  0  0  0  0  0  0  0  0  0
   -2.8035   -0.4965    0.8471 C   0  0  0  0  0  0  0  0  0  0  0  0
   -2.0632   -1.2973    1.9275 C   0  0  0  0  0  0  0  0  0  0  0  0
   -1.9200   -0.5176    3.2430 C   0  0  0  0  0  0  0  0  0  0  0  0
   -0.8422    0.5656    3.1714 C   0  0  0  0  0  0  0  0  0  0  0  0
   -1.5980   -1.0668   -1.3212 C   0  0  0  0  0  0  0  0  0  0  0  0
   -1.5450   -1.7477   -2.3828 O   0  0  0  0  0  0  0  0  0  0  0  0
   -0.4974   -0.0676   -1.0395 C   0  0  0  0  0  0  0  0  0  0  0  0
    0.7065   -0.3118   -1.8710 N   0  0  0  0  0  0  0  0  0  0  0  0
    1.3656   -1.5894   -1.5036 C   0  0  0  0  0  0  0  0  0  0  0  0
    2.7582   -1.2798   -0.9264 C   0  0  1  0  0  0  0  0  0  0  0  0
    2.7383    0.2226   -0.6682 C   0  0  2  0  0  0  0  0  0  0  0  0
    1.7595    0.7227   -1.7326 C   0  0  2  0  0  0  0  0  0  0  0  0
    1.2582    2.1568   -1.5442 C   0  0  0  0  0  0  0  0  0  0  0  0
    1.0753    2.9674   -2.6785 C   0  0  0  0  0  0  0  0  0  0  0  0
    0.5909    4.2719   -2.5538 C   0  0  0  0  0  0  0  0  0  0  0  0
    0.2645    4.7930   -1.2986 C   0  0  0  0  0  0  0  0  0  0  0  0
   -0.2195    6.1077   -1.2273 O   0  0  0  0  0  0  0  0  0  0  0  0
   -0.5937    6.7618   -0.0191 C   0  0  0  0  0  0  0  0  0  0  0  0
    0.4261    3.9852   -0.1591 C   0  0  0  0  0  0  0  0  0  0  0  0
    0.9128    2.6808   -0.2804 C   0  0  0  0  0  0  0  0  0  0  0  0
    4.1014    0.8565   -0.7702 C   0  0  0  0  0  0  0  0  0  0  0  0
    4.6283    1.5295    0.3274 O   0  0  0  0  0  0  0  0  0  0  0  0
    4.7682    0.7823   -1.8379 O   0  0  0  0  0  0  0  0  0  0  0  0
    3.0989   -2.0892    0.3133 C   0  0  0  0  0  0  0  0  0  0  0  0
    4.2831   -2.8622    0.3407 C   0  0  0  0  0  0  0  0  0  0  0  0
    4.5735   -3.5799    1.4974 C   0  0  0  0  0  0  0  0  0  0  0  0
    3.7623   -3.5536    2.5839 C   0  0  0  0  0  0  0  0  0  0  0  0
    4.2957   -4.3521    3.5770 O   0  0  0  0  0  0  0  0  0  0  0  0
    5.5191   -4.9150    3.0830 C   0  0  0  0  0  0  0  0  0  0  0  0
    5.6585   -4.3961    1.7530 O   0  0  0  0  0  0  0  0  0  0  0  0
    2.5902   -2.8065    2.6095 C   0  0  0  0  0  0  0  0  0  0  0  0
    2.2594   -2.0659    1.4614 C   0  0  0  0  0  0  0  0  0  0  0  0
   -7.1097   -0.3927   -2.8205 H   0  0  0  0  0  0  0  0  0  0  0  0
   -5.7265    0.5615   -3.4992 H   0  0  0  0  0  0  0  0  0  0  0  0
   -6.7927    1.2845   -2.2356 H   0  0  0  0  0  0  0  0  0  0  0  0
   -4.6363    0.5734   -1.2484 H   0  0  0  0  0  0  0  0  0  0  0  0
   -6.0080   -0.3855   -0.5725 H   0  0  0  0  0  0  0  0  0  0  0  0
   -5.4885   -2.2419   -2.2092 H   0  0  0  0  0  0  0  0  0  0  0  0
   -4.0907   -1.3002   -2.8271 H   0  0  0  0  0  0  0  0  0  0  0  0
   -4.4907   -2.3183    0.0685 H   0  0  0  0  0  0  0  0  0  0  0  0
   -3.4374   -3.0751   -1.1494 H   0  0  0  0  0  0  0  0  0  0  0  0
   -3.8616   -0.3643    1.1632 H   0  0  0  0  0  0  0  0  0  0  0  0
   -2.3949    0.5282    0.7389 H   0  0  0  0  0  0  0  0  0  0  0  0
   -1.0633   -1.6157    1.5666 H   0  0  0  0  0  0  0  0  0  0  0  0
   -2.6426   -2.2245    2.1289 H   0  0  0  0  0  0  0  0  0  0  0  0
   -2.8928   -0.0595    3.5256 H   0  0  0  0  0  0  0  0  0  0  0  0
   -1.6386   -1.2323    4.0465 H   0  0  0  0  0  0  0  0  0  0  0  0
   -0.7282    1.0374    4.1698 H   0  0  0  0  0  0  0  0  0  0  0  0
   -1.1185    1.3576    2.4458 H   0  0  0  0  0  0  0  0  0  0  0  0
    0.1339    0.1252    2.8792 H   0  0  0  0  0  0  0  0  0  0  0  0
   -0.9380    0.9198   -1.2869 H   0  0  0  0  0  0  0  0  0  0  0  0
   -0.2202   -0.0741    0.0351 H   0  0  0  0  0  0  0  0  0  0  0  0
    0.7588   -2.1975   -0.7954 H   0  0  0  0  0  0  0  0  0  0  0  0
    1.4758   -2.2060   -2.4217 H   0  0  0  0  0  0  0  0  0  0  0  0
    3.4986   -1.5006   -1.7305 H   0  0  0  0  0  0  0  0  0  0  0  0
    2.3315    0.4100    0.3449 H   0  0  0  0  0  0  0  0  0  0  0  0
    2.3167    0.7114   -2.6990 H   0  0  0  0  0  0  0  0  0  0  0  0
    1.3069    2.5893   -3.6666 H   0  0  0  0  0  0  0  0  0  0  0  0
    0.4636    4.8807   -3.4400 H   0  0  0  0  0  0  0  0  0  0  0  0
   -0.9371    7.7898   -0.2548 H   0  0  0  0  0  0  0  0  0  0  0  0
    0.2779    6.8262    0.6660 H   0  0  0  0  0  0  0  0  0  0  0  0
   -1.4254    6.2125    0.4706 H   0  0  0  0  0  0  0  0  0  0  0  0
    0.1700    4.3523    0.8254 H   0  0  0  0  0  0  0  0  0  0  0  0
    0.9873    2.0856    0.6172 H   0  0  0  0  0  0  0  0  0  0  0  0
    5.5427    1.9629    0.2812 H   0  0  0  0  0  0  0  0  0  0  0  0
    4.9553   -2.9022   -0.5069 H   0  0  0  0  0  0  0  0  0  0  0  0
    6.3729   -4.5885    3.7130 H   0  0  0  0  0  0  0  0  0  0  0  0
    5.4479   -6.0226    3.0565 H   0  0  0  0  0  0  0  0  0  0  0  0
    1.9548   -2.7938    3.4853 H   0  0  0  0  0  0  0  0  0  0  0  0
    1.3550   -1.4752    1.4650 H   0  0  0  0  0  0  0  0  0  0  0  0
  1  2  1  0
  2  3  1  0
  3  4  1  0
  4  5  1  0
  5  6  1  0
  6  7  1  0
  7  8  1  0
  8  9  1  0
  5 10  1  0
 10 11  2  0
 10 12  1  0
 12 13  1  0
 13 14  1  0
 14 15  1  0
 15 16  1  0
 16 17  1  0
 17 18  1  0
 18 19  2  0
 19 20  1  0
 20 21  2  0
 21 22  1  0
 22 23  1  0
 21 24  1  0
 24 25  2  0
 16 26  1  0
 26 27  1  0
 26 28  2  0
 15 29  1  0
 29 30  2  0
 30 31  1  0
 31 32  2  0
 32 33  1  0
 33 34  1  0
 34 35  1  0
 32 36  1  0
 36 37  2  0
 17 13  1  0
 25 18  1  0
 37 29  1  0
 35 31  1  0
  1 38  1  0
  1 39  1  0
  1 40  1  0
  2 41  1  0
  2 42  1  0
  3 43  1  0
  3 44  1  0
  4 45  1  0
  4 46  1  0
  6 47  1  0
  6 48  1  0
  7 49  1  0
  7 50  1  0
  8 51  1  0
  8 52  1  0
  9 53  1  0
  9 54  1  0
  9 55  1  0
 12 56  1  0
 12 57  1  0
 14 58  1  0
 14 59  1  0
 15 60  1  6
 16 61  1  1
 17 62  1  6
 19 63  1  0
 20 64  1  0
 23 65  1  0
 23 66  1  0
 23 67  1  0
 24 68  1  0
 25 69  1  0
 27 70  1  0
 30 71  1  0
 34 72  1  0
 34 73  1  0
 36 74  1  0
 37 75  1  0
M  END
$$$$
