
     RDKit          3D

 17 17  0  0  0  0  0  0  0  0999 V2000
    3.0558   -0.2523    0.4433 O   0  0  0  0  0  0  0  0  0  0  0  0
    1.8757   -0.4740   -0.2594 C   0  0  0  0  0  0  0  0  0  0  0  0
    1.9220   -0.8611   -1.4584 O   0  0  0  0  0  0  0  0  0  0  0  0
    0.5553   -0.2089    0.4013 C   0  0  1  0  0  0  0  0  0  0  0  0
   -0.0385    1.1189   -0.0463 C   0  0  0  0  0  0  0  0  0  0  0  0
   -1.5256    0.8837    0.0244 C   0  0  0  0  0  0  0  0  0  0  0  0
   -1.6819   -0.6046   -0.2389 C   0  0  0  0  0  0  0  0  0  0  0  0
   -0.4072   -1.2621    0.0631 N   0  0  0  0  0  0  0  0  0  0  0  0
    3.9569   -0.4120    0.0089 H   0  0  0  0  0  0  0  0  0  0  0  0
    0.7039   -0.1767    1.5063 H   0  0  0  0  0  0  0  0  0  0  0  0
    0.2436    1.3541   -1.0977 H   0  0  0  0  0  0  0  0  0  0  0  0
    0.2746    1.9541    0.6177 H   0  0  0  0  0  0  0  0  0  0  0  0
   -1.8959    1.1261    1.0452 H   0  0  0  0  0  0  0  0  0  0  0  0
   -2.0736    1.4945   -0.7256 H   0  0  0  0  0  0  0  0  0  0  0  0
   -2.5097   -1.0257    0.3750 H   0  0  0  0  0  0  0  0  0  0  0  0
   -1.9206   -0.7702   -1.3116 H   0  0  0  0  0  0  0  0  0  0  0  0
   -0.5347   -1.8837    0.8968 H   0  0  0  0  0  0  0  0  0  0  0  0
  1  2  1  0
  2  3  2  0
  2  4  1  0
  4  5  1  0
  5  6  1  0
  6  7  1  0
  7  8  1  0
  8  4  1  0
  1  9  1  0
  4 10  1  1
  5 11  1  0
  5 12  1  0
  6 13  1  0
  6 14  1  0
  7 15  1  0
  7 16  1  0
  8 17  1  0
M  END
$$$$
