
     RDKit          3D

 39 43  0  0  0  0  0  0  0  0999 V2000
    3.6813   -1.0298    0.4381 C   0  0  2  0  0  0  0  0  0  0  0  0
    4.0670   -0.9960   -0.9168 O   0  0  0  0  0  0  0  0  0  0  0  0
    2.2305   -1.5105    0.6130 C   0  0  0  0  0  0  0  0  0  0  0  0
    1.1780   -0.4439    0.3428 C   0  0  0  0  0  0  0  0  0  0  0  0
   -0.1905   -0.8085    0.1852 C   0  0  0  0  0  0  0  0  0  0  0  0
   -0.6340   -2.1437    0.3269 C   0  0  0  0  0  0  0  0  0  0  0  0
   -1.9770   -2.4817    0.1466 C   0  0  0  0  0  0  0  0  0  0  0  0
   -2.9200   -1.5003   -0.1728 C   0  0  0  0  0  0  0  0  0  0  0  0
   -4.2693   -1.8370   -0.3593 C   0  0  0  0  0  0  0  0  0  0  0  0
   -5.2044   -0.8470   -0.6725 C   0  0  0  0  0  0  0  0  0  0  0  0
   -4.8059    0.4862   -0.8004 C   0  0  0  0  0  0  0  0  0  0  0  0
   -3.4614    0.8418   -0.6156 C   0  0  0  0  0  0  0  0  0  0  0  0
   -3.0522    2.1759   -0.7371 C   0  0  0  0  0  0  0  0  0  0  0  0
   -1.7133    2.5223   -0.5445 C   0  0  0  0  0  0  0  0  0  0  0  0
   -0.7602    1.5402   -0.2317 C   0  0  0  0  0  0  0  0  0  0  0  0
    0.5731    1.8953   -0.0231 C   0  0  0  0  0  0  0  0  0  0  0  0
    1.5396    0.9307    0.3004 C   0  0  0  0  0  0  0  0  0  0  0  0
    2.9753    1.4006    0.4929 C   0  0  1  0  0  0  0  0  0  0  0  0
    3.0224    2.5727    1.2704 O   0  0  0  0  0  0  0  0  0  0  0  0
    3.8874    0.3304    1.1173 C   0  0  2  0  0  0  0  0  0  0  0  0
    5.2270    0.7341    0.9947 O   0  0  0  0  0  0  0  0  0  0  0  0
   -1.1507    0.1909   -0.1155 C   0  0  0  0  0  0  0  0  0  0  0  0
   -2.5097   -0.1565   -0.3018 C   0  0  0  0  0  0  0  0  0  0  0  0
    4.3378   -1.7693    0.9471 H   0  0  0  0  0  0  0  0  0  0  0  0
    3.3528   -0.5434   -1.4359 H   0  0  0  0  0  0  0  0  0  0  0  0
    2.0873   -2.3712   -0.0748 H   0  0  0  0  0  0  0  0  0  0  0  0
    2.0958   -1.8737    1.6553 H   0  0  0  0  0  0  0  0  0  0  0  0
    0.0417   -2.9435    0.5931 H   0  0  0  0  0  0  0  0  0  0  0  0
   -2.2789   -3.5163    0.2609 H   0  0  0  0  0  0  0  0  0  0  0  0
   -4.6005   -2.8642   -0.2629 H   0  0  0  0  0  0  0  0  0  0  0  0
   -6.2435   -1.1141   -0.8155 H   0  0  0  0  0  0  0  0  0  0  0  0
   -5.5476    1.2382   -1.0420 H   0  0  0  0  0  0  0  0  0  0  0  0
   -3.7687    2.9526   -0.9768 H   0  0  0  0  0  0  0  0  0  0  0  0
   -1.4229    3.5622   -0.6374 H   0  0  0  0  0  0  0  0  0  0  0  0
    0.8657    2.9359   -0.1109 H   0  0  0  0  0  0  0  0  0  0  0  0
    3.3732    1.6549   -0.5137 H   0  0  0  0  0  0  0  0  0  0  0  0
    2.5956    2.3698    2.1444 H   0  0  0  0  0  0  0  0  0  0  0  0
    3.6274    0.2274    2.1983 H   0  0  0  0  0  0  0  0  0  0  0  0
    5.7517    0.1885    1.6374 H   0  0  0  0  0  0  0  0  0  0  0  0
  1  2  1  0
  1  3  1  0
  3  4  1  0
  4  5  2  0
  5  6  1  0
  6  7  2  0
  7  8  1  0
  8  9  2  0
  9 10  1  0
 10 11  2  0
 11 12  1  0
 12 13  2  0
 13 14  1  0
 14 15  2  0
 15 16  1  0
 16 17  2  0
 17 18  1  0
 18 19  1  0
 18 20  1  0
 20 21  1  0
 15 22  1  0
 22 23  2  0
 20  1  1  0
 17  4  1  0
 22  5  1  0
 23  8  1  0
 23 12  1  0
  1 24  1  1
  2 25  1  0
  3 26  1  0
  3 27  1  0
  6 28  1  0
  7 29  1  0
  9 30  1  0
 10 31  1  0
 11 32  1  0
 13 33  1  0
 14 34  1  0
 16 35  1  0
 18 36  1  6
 19 37  1  0
 20 38  1  1
 21 39  1  0
M  END
$$$$
