
     RDKit          3D

 52 53  0  0  0  0  0  0  0  0999 V2000
   -5.3891    0.2232   -2.6718 C   0  0  0  0  0  0  0  0  0  0  0  0
   -4.4895    0.6103   -1.6384 O   0  0  0  0  0  0  0  0  0  0  0  0
   -4.3686   -0.0387   -0.3978 C   0  0  0  0  0  0  0  0  0  0  0  0
   -5.1680   -1.1495   -0.0687 C   0  0  0  0  0  0  0  0  0  0  0  0
   -5.0221   -1.7857    1.1624 C   0  0  0  0  0  0  0  0  0  0  0  0
   -4.0794   -1.3301    2.0817 C   0  0  0  0  0  0  0  0  0  0  0  0
   -3.2678   -0.2216    1.7793 C   0  0  0  0  0  0  0  0  0  0  0  0
   -2.3025    0.2544    2.6832 O   0  0  0  0  0  0  0  0  0  0  0  0
   -2.0298   -0.3232    3.9554 C   0  0  0  0  0  0  0  0  0  0  0  0
   -3.4188    0.4324    0.5369 C   0  0  0  0  0  0  0  0  0  0  0  0
   -2.5308    1.6138    0.2097 C   0  0  0  0  0  0  0  0  0  0  0  0
   -1.1311    1.1728    0.0458 N   0  0  0  0  0  0  0  0  0  0  0  0
   -0.9168    0.5422   -1.2721 C   0  0  0  0  0  0  0  0  0  0  0  0
    0.4594   -0.1482   -1.3190 C   0  0  0  0  0  0  0  0  0  0  0  0
    1.4642    0.4700   -0.3230 C   0  0  0  0  0  0  0  0  0  0  0  0
    1.2386    1.9862   -0.2115 C   0  0  0  0  0  0  0  0  0  0  0  0
   -0.2044    2.3131    0.2346 C   0  0  0  0  0  0  0  0  0  0  0  0
    2.8397    0.1821   -0.7417 N   0  0  0  0  0  0  0  0  0  0  0  0
    3.4149   -1.1279   -0.6317 C   0  0  0  0  0  0  0  0  0  0  0  0
    2.7526   -2.0758   -0.1287 O   0  0  0  0  0  0  0  0  0  0  0  0
    4.8288   -1.3659   -1.0676 C   0  0  0  0  0  0  0  0  0  0  0  0
    5.8059   -0.9517    0.0393 C   0  0  0  0  0  0  0  0  0  0  0  0
    7.2645   -1.2083   -0.3533 C   0  0  0  0  0  0  0  0  0  0  0  0
    7.8180   -0.0707   -1.6658 S   0  0  0  0  0  0  0  0  0  0  0  0
   -5.2633    0.9071   -3.5360 H   0  0  0  0  0  0  0  0  0  0  0  0
   -6.4373    0.2944   -2.3122 H   0  0  0  0  0  0  0  0  0  0  0  0
   -5.1664   -0.8129   -3.0035 H   0  0  0  0  0  0  0  0  0  0  0  0
   -5.9056   -1.5324   -0.7604 H   0  0  0  0  0  0  0  0  0  0  0  0
   -5.6416   -2.6398    1.4044 H   0  0  0  0  0  0  0  0  0  0  0  0
   -3.9885   -1.8489    3.0260 H   0  0  0  0  0  0  0  0  0  0  0  0
   -2.9349   -0.2785    4.5971 H   0  0  0  0  0  0  0  0  0  0  0  0
   -1.6975   -1.3757    3.8333 H   0  0  0  0  0  0  0  0  0  0  0  0
   -1.2176    0.2507    4.4466 H   0  0  0  0  0  0  0  0  0  0  0  0
   -2.6138    2.3327    1.0562 H   0  0  0  0  0  0  0  0  0  0  0  0
   -2.8775    2.1672   -0.6912 H   0  0  0  0  0  0  0  0  0  0  0  0
   -0.9812    1.3069   -2.0803 H   0  0  0  0  0  0  0  0  0  0  0  0
   -1.6957   -0.2247   -1.4752 H   0  0  0  0  0  0  0  0  0  0  0  0
    0.8570   -0.0781   -2.3556 H   0  0  0  0  0  0  0  0  0  0  0  0
    0.3369   -1.2271   -1.0799 H   0  0  0  0  0  0  0  0  0  0  0  0
    1.2962    0.0303    0.6865 H   0  0  0  0  0  0  0  0  0  0  0  0
    1.4293    2.4559   -1.2023 H   0  0  0  0  0  0  0  0  0  0  0  0
    1.9613    2.4220    0.5127 H   0  0  0  0  0  0  0  0  0  0  0  0
   -0.1863    2.5770    1.3149 H   0  0  0  0  0  0  0  0  0  0  0  0
   -0.5585    3.2088   -0.3258 H   0  0  0  0  0  0  0  0  0  0  0  0
    3.4426    0.9578   -1.1002 H   0  0  0  0  0  0  0  0  0  0  0  0
    4.9658   -2.4432   -1.3074 H   0  0  0  0  0  0  0  0  0  0  0  0
    5.0241   -0.7819   -1.9922 H   0  0  0  0  0  0  0  0  0  0  0  0
    5.6702    0.1245    0.2850 H   0  0  0  0  0  0  0  0  0  0  0  0
    5.5826   -1.5404    0.9563 H   0  0  0  0  0  0  0  0  0  0  0  0
    7.9137   -1.0604    0.5357 H   0  0  0  0  0  0  0  0  0  0  0  0
    7.3906   -2.2561   -0.7000 H   0  0  0  0  0  0  0  0  0  0  0  0
    7.7275    1.0617   -0.8338 H   0  0  0  0  0  0  0  0  0  0  0  0
  1  2  1  0
  2  3  1  0
  3  4  2  0
  4  5  1  0
  5  6  2  0
  6  7  1  0
  7  8  1  0
  8  9  1  0
  7 10  2  0
 10 11  1  0
 11 12  1  0
 12 13  1  0
 13 14  1  0
 14 15  1  0
 15 16  1  0
 16 17  1  0
 15 18  1  0
 18 19  1  0
 19 20  2  0
 19 21  1  0
 21 22  1  0
 22 23  1  0
 23 24  1  0
 10  3  1  0
 17 12  1  0
  1 25  1  0
  1 26  1  0
  1 27  1  0
  4 28  1  0
  5 29  1  0
  6 30  1  0
  9 31  1  0
  9 32  1  0
  9 33  1  0
 11 34  1  0
 11 35  1  0
 13 36  1  0
 13 37  1  0
 14 38  1  0
 14 39  1  0
 15 40  1  0
 16 41  1  0
 16 42  1  0
 17 43  1  0
 17 44  1  0
 18 45  1  0
 21 46  1  0
 21 47  1  0
 22 48  1  0
 22 49  1  0
 23 50  1  0
 23 51  1  0
 24 52  1  0
M  END
$$$$
