
     RDKit          3D

 42 45  0  0  0  0  0  0  0  0999 V2000
    2.4116    0.6021    0.3154 C   0  0  1  0  0  0  0  0  0  0  0  0
    2.8610    1.8818    1.0423 C   0  0  0  0  0  0  0  0  0  0  0  0
    4.1420    2.3703    0.5340 N   0  0  0  0  0  0  0  0  0  0  0  0
    1.1275    0.0434    0.9451 C   0  0  0  0  0  0  0  0  0  0  0  0
    0.4596   -0.8661    0.0092 N   0  0  0  0  0  0  0  0  0  0  0  0
    1.1730   -1.3847   -1.1635 C   0  0  0  0  0  0  0  0  0  0  0  0
    2.0799   -0.3036   -1.7984 C   0  0  0  0  0  0  0  0  0  0  0  0
    2.1558    0.8945   -1.0441 O   0  0  0  0  0  0  0  0  0  0  0  0
   -0.8407   -1.3796    0.3385 C   0  0  0  0  0  0  0  0  0  0  0  0
   -2.0065   -0.5659    0.2892 C   0  0  0  0  0  0  0  0  0  0  0  0
   -3.2536   -1.1201    0.6895 C   0  0  0  0  0  0  0  0  0  0  0  0
   -3.3442   -2.4185    1.1068 N   0  0  0  0  0  0  0  0  0  0  0  0
   -2.2219   -3.1748    1.1340 C   0  0  0  0  0  0  0  0  0  0  0  0
   -1.0039   -2.6948    0.7718 C   0  0  0  0  0  0  0  0  0  0  0  0
   -0.1303   -3.7416    0.9889 C   0  0  0  0  0  0  0  0  0  0  0  0
   -0.8396   -4.7990    1.4586 N   0  0  0  0  0  0  0  0  0  0  0  0
   -2.1177   -4.4455    1.5438 N   0  0  0  0  0  0  0  0  0  0  0  0
   -1.9502    0.8406   -0.1712 C   0  0  0  0  0  0  0  0  0  0  0  0
   -1.3623    1.1673   -1.4055 C   0  0  0  0  0  0  0  0  0  0  0  0
   -1.2864    2.5000   -1.8203 C   0  0  0  0  0  0  0  0  0  0  0  0
   -1.8054    3.5153   -1.0130 C   0  0  0  0  0  0  0  0  0  0  0  0
   -2.4053    3.1988    0.2087 C   0  0  0  0  0  0  0  0  0  0  0  0
   -2.4811    1.8672    0.6285 C   0  0  0  0  0  0  0  0  0  0  0  0
    3.2271   -0.1540    0.4198 H   0  0  0  0  0  0  0  0  0  0  0  0
    2.0945    2.6781    0.9176 H   0  0  0  0  0  0  0  0  0  0  0  0
    2.9644    1.6755    2.1301 H   0  0  0  0  0  0  0  0  0  0  0  0
    4.0457    2.5854   -0.4849 H   0  0  0  0  0  0  0  0  0  0  0  0
    4.8584    1.6149    0.6353 H   0  0  0  0  0  0  0  0  0  0  0  0
    1.3688   -0.4989    1.8848 H   0  0  0  0  0  0  0  0  0  0  0  0
    0.4395    0.8801    1.1928 H   0  0  0  0  0  0  0  0  0  0  0  0
    0.4477   -1.7544   -1.9218 H   0  0  0  0  0  0  0  0  0  0  0  0
    1.8007   -2.2454   -0.8501 H   0  0  0  0  0  0  0  0  0  0  0  0
    1.6782   -0.0467   -2.8015 H   0  0  0  0  0  0  0  0  0  0  0  0
    3.1030   -0.7098   -1.9609 H   0  0  0  0  0  0  0  0  0  0  0  0
   -4.1520   -0.5169    0.6573 H   0  0  0  0  0  0  0  0  0  0  0  0
    0.9401   -3.7412    0.8375 H   0  0  0  0  0  0  0  0  0  0  0  0
   -2.8867   -5.0625    1.8868 H   0  0  0  0  0  0  0  0  0  0  0  0
   -0.9720    0.3919   -2.0512 H   0  0  0  0  0  0  0  0  0  0  0  0
   -0.8281    2.7451   -2.7697 H   0  0  0  0  0  0  0  0  0  0  0  0
   -1.7459    4.5467   -1.3355 H   0  0  0  0  0  0  0  0  0  0  0  0
   -2.8082    3.9860    0.8327 H   0  0  0  0  0  0  0  0  0  0  0  0
   -2.9366    1.6387    1.5842 H   0  0  0  0  0  0  0  0  0  0  0  0
  1  2  1  0
  2  3  1  0
  1  4  1  0
  4  5  1  0
  5  6  1  0
  6  7  1  0
  7  8  1  0
  5  9  1  0
  9 10  1  0
 10 11  2  0
 11 12  1  0
 12 13  2  0
 13 14  1  0
 14 15  1  0
 15 16  2  0
 16 17  1  0
 10 18  1  0
 18 19  2  0
 19 20  1  0
 20 21  2  0
 21 22  1  0
 22 23  2  0
  8  1  1  0
 14  9  2  0
 23 18  1  0
 17 13  1  0
  1 24  1  6
  2 25  1  0
  2 26  1  0
  3 27  1  0
  3 28  1  0
  4 29  1  0
  4 30  1  0
  6 31  1  0
  6 32  1  0
  7 33  1  0
  7 34  1  0
 11 35  1  0
 15 36  1  0
 17 37  1  0
 19 38  1  0
 20 39  1  0
 21 40  1  0
 22 41  1  0
 23 42  1  0
M  END
$$$$
