
     RDKit          3D

 39 39  0  0  0  0  0  0  0  0999 V2000
   -7.1562    0.9404   -1.9038 N   0  0  0  0  0  0  0  0  0  0  0  0
   -6.3367   -0.5808   -1.8582 S   0  0  0  0  0  6  0  0  0  0  0  0
   -7.2364   -1.6224   -1.2534 O   0  0  0  0  0  0  0  0  0  0  0  0
   -5.9840   -1.0021   -3.2573 O   0  0  0  0  0  0  0  0  0  0  0  0
   -4.8720   -0.4276   -0.8938 C   0  0  0  0  0  0  0  0  0  0  0  0
   -4.9206   -0.6148    0.4926 C   0  0  0  0  0  0  0  0  0  0  0  0
   -3.7618   -0.4804    1.2627 C   0  0  0  0  0  0  0  0  0  0  0  0
   -2.5337   -0.1595    0.6565 C   0  0  0  0  0  0  0  0  0  0  0  0
   -2.4970    0.0468   -0.7350 C   0  0  0  0  0  0  0  0  0  0  0  0
   -3.6579   -0.0872   -1.5025 C   0  0  0  0  0  0  0  0  0  0  0  0
   -1.3132   -0.0148    1.4865 C   0  0  0  0  0  0  0  0  0  0  0  0
   -1.4287    0.2628    2.7120 O   0  0  0  0  0  0  0  0  0  0  0  0
   -0.0047   -0.2024    0.9246 N   0  0  0  0  0  0  0  0  0  0  0  0
    1.2015    0.0957    1.6971 C   0  0  0  0  0  0  0  0  0  0  0  0
    2.4626   -0.1890    0.8745 C   0  0  0  0  0  0  0  0  0  0  0  0
    3.7300    0.1314    1.6789 C   0  0  0  0  0  0  0  0  0  0  0  0
    5.0040   -0.1803    0.8851 C   0  0  0  0  0  0  0  0  0  0  0  0
    5.1066    0.6906   -0.2925 N   0  0  0  0  0  0  0  0  0  0  0  0
    6.2763    0.3250   -1.0941 C   0  0  0  0  0  0  0  0  0  0  0  0
    6.3467    1.3732   -2.5773 S   0  0  0  0  0  0  0  0  0  0  0  0
   -7.4207    1.1740   -0.9206 H   0  0  0  0  0  0  0  0  0  0  0  0
   -8.0471    0.7921   -2.4287 H   0  0  0  0  0  0  0  0  0  0  0  0
   -5.8555   -0.8626    0.9791 H   0  0  0  0  0  0  0  0  0  0  0  0
   -3.8246   -0.6369    2.3326 H   0  0  0  0  0  0  0  0  0  0  0  0
   -1.5818    0.3382   -1.2324 H   0  0  0  0  0  0  0  0  0  0  0  0
   -3.6099    0.0840   -2.5703 H   0  0  0  0  0  0  0  0  0  0  0  0
    0.0890   -0.6006   -0.0368 H   0  0  0  0  0  0  0  0  0  0  0  0
    1.1875    1.1675    1.9930 H   0  0  0  0  0  0  0  0  0  0  0  0
    1.2103   -0.5296    2.6166 H   0  0  0  0  0  0  0  0  0  0  0  0
    2.4391    0.4307   -0.0485 H   0  0  0  0  0  0  0  0  0  0  0  0
    2.4715   -1.2618    0.5811 H   0  0  0  0  0  0  0  0  0  0  0  0
    3.7304    1.2041    1.9727 H   0  0  0  0  0  0  0  0  0  0  0  0
    3.7372   -0.4784    2.6088 H   0  0  0  0  0  0  0  0  0  0  0  0
    4.9830   -1.2496    0.5762 H   0  0  0  0  0  0  0  0  0  0  0  0
    5.8842   -0.0278    1.5501 H   0  0  0  0  0  0  0  0  0  0  0  0
    5.2478    1.6724    0.0445 H   0  0  0  0  0  0  0  0  0  0  0  0
    7.2124    0.4651   -0.5089 H   0  0  0  0  0  0  0  0  0  0  0  0
    6.2020   -0.7344   -1.4232 H   0  0  0  0  0  0  0  0  0  0  0  0
    7.5201    0.7491   -3.0419 H   0  0  0  0  0  0  0  0  0  0  0  0
  1  2  1  0
  2  3  2  0
  2  4  2  0
  2  5  1  0
  5  6  2  0
  6  7  1  0
  7  8  2  0
  8  9  1  0
  9 10  2  0
  8 11  1  0
 11 12  2  0
 11 13  1  0
 13 14  1  0
 14 15  1  0
 15 16  1  0
 16 17  1  0
 17 18  1  0
 18 19  1  0
 19 20  1  0
 10  5  1  0
  1 21  1  0
  1 22  1  0
  6 23  1  0
  7 24  1  0
  9 25  1  0
 10 26  1  0
 13 27  1  0
 14 28  1  0
 14 29  1  0
 15 30  1  0
 15 31  1  0
 16 32  1  0
 16 33  1  0
 17 34  1  0
 17 35  1  0
 18 36  1  0
 19 37  1  0
 19 38  1  0
 20 39  1  0
M  END
$$$$
