
     RDKit          3D

 49 49  0  0  0  0  0  0  0  0999 V2000
    3.0213    0.0171    0.0101 C   0  0  2  0  0  0  0  0  0  0  0  0
    4.1563    0.3777    0.9968 C   0  0  0  0  0  0  0  0  0  0  0  0
    5.4920    0.7349    0.3169 C   0  0  0  0  0  0  0  0  0  0  0  0
    6.2434   -0.4890   -0.2262 C   0  0  0  0  0  0  0  0  0  0  0  0
    7.6567   -0.1164   -0.6658 C   0  0  0  0  0  0  0  0  0  0  0  0
    1.7182    0.1483    0.6694 N   0  0  0  0  0  0  0  0  0  0  0  0
    0.4918    0.2196   -0.0664 C   0  0  0  0  0  0  0  0  0  0  0  0
    0.5081    0.2379   -1.3281 O   0  0  0  0  0  0  0  0  0  0  0  0
   -0.7197    0.2705    0.6328 O   0  0  0  0  0  0  0  0  0  0  0  0
   -2.0090    0.2419    0.0124 C   0  0  2  0  0  0  0  0  0  0  0  0
   -2.9407    1.1858    0.8001 C   0  0  0  0  0  0  0  0  0  0  0  0
   -4.2980    1.3304    0.1581 C   0  0  0  0  0  0  0  0  0  0  0  0
   -5.4162    0.6721    0.6982 C   0  0  0  0  0  0  0  0  0  0  0  0
   -6.6678    0.7925    0.0866 C   0  0  0  0  0  0  0  0  0  0  0  0
   -6.8124    1.5682   -1.0669 C   0  0  0  0  0  0  0  0  0  0  0  0
   -5.7052    2.2244   -1.6113 C   0  0  0  0  0  0  0  0  0  0  0  0
   -4.4516    2.1064   -1.0033 C   0  0  0  0  0  0  0  0  0  0  0  0
   -2.5438   -1.2188   -0.0731 C   0  0  0  0  0  0  0  0  0  0  0  0
   -2.5437   -1.9317    1.2892 C   0  0  0  0  0  0  0  0  0  0  0  0
   -1.7462   -2.0447   -1.0919 C   0  0  0  0  0  0  0  0  0  0  0  0
    3.1658   -1.3851   -0.5165 C   0  0  0  0  0  0  0  0  0  0  0  0
    3.1266   -2.3430    0.2400 O   0  0  0  0  0  0  0  0  0  0  0  0
    3.0594    0.7298   -0.8433 H   0  0  0  0  0  0  0  0  0  0  0  0
    3.8393    1.2775    1.5693 H   0  0  0  0  0  0  0  0  0  0  0  0
    4.3060   -0.4346    1.7420 H   0  0  0  0  0  0  0  0  0  0  0  0
    6.1317    1.2343    1.0778 H   0  0  0  0  0  0  0  0  0  0  0  0
    5.3196    1.4670   -0.5022 H   0  0  0  0  0  0  0  0  0  0  0  0
    6.3075   -1.2751    0.5572 H   0  0  0  0  0  0  0  0  0  0  0  0
    5.7088   -0.9030   -1.1055 H   0  0  0  0  0  0  0  0  0  0  0  0
    8.2430    0.2634    0.1980 H   0  0  0  0  0  0  0  0  0  0  0  0
    7.6216    0.6627   -1.4570 H   0  0  0  0  0  0  0  0  0  0  0  0
    8.1682   -1.0139   -1.0732 H   0  0  0  0  0  0  0  0  0  0  0  0
    1.6601    0.1301    1.7132 H   0  0  0  0  0  0  0  0  0  0  0  0
   -1.9367    0.6581   -1.0180 H   0  0  0  0  0  0  0  0  0  0  0  0
   -2.4671    2.1910    0.8451 H   0  0  0  0  0  0  0  0  0  0  0  0
   -3.0363    0.8494    1.8540 H   0  0  0  0  0  0  0  0  0  0  0  0
   -5.3187    0.0633    1.5882 H   0  0  0  0  0  0  0  0  0  0  0  0
   -7.5256    0.2829    0.5060 H   0  0  0  0  0  0  0  0  0  0  0  0
   -7.7819    1.6598   -1.5393 H   0  0  0  0  0  0  0  0  0  0  0  0
   -5.8180    2.8236   -2.5056 H   0  0  0  0  0  0  0  0  0  0  0  0
   -3.6009    2.6174   -1.4369 H   0  0  0  0  0  0  0  0  0  0  0  0
   -3.5913   -1.1950   -0.4437 H   0  0  0  0  0  0  0  0  0  0  0  0
   -3.2243   -1.4241    2.0018 H   0  0  0  0  0  0  0  0  0  0  0  0
   -2.9073   -2.9751    1.1734 H   0  0  0  0  0  0  0  0  0  0  0  0
   -1.5209   -1.9617    1.7216 H   0  0  0  0  0  0  0  0  0  0  0  0
   -2.2284   -3.0347   -1.2394 H   0  0  0  0  0  0  0  0  0  0  0  0
   -0.7060   -2.2130   -0.7420 H   0  0  0  0  0  0  0  0  0  0  0  0
   -1.7213   -1.5284   -2.0751 H   0  0  0  0  0  0  0  0  0  0  0  0
    3.2936   -1.5507   -1.5813 H   0  0  0  0  0  0  0  0  0  0  0  0
  1  2  1  0
  2  3  1  0
  3  4  1  0
  4  5  1  0
  1  6  1  0
  6  7  1  0
  7  8  2  0
  7  9  1  0
  9 10  1  0
 10 11  1  0
 11 12  1  0
 12 13  2  0
 13 14  1  0
 14 15  2  0
 15 16  1  0
 16 17  2  0
 10 18  1  0
 18 19  1  0
 18 20  1  0
  1 21  1  0
 21 22  2  0
 17 12  1  0
  1 23  1  6
  2 24  1  0
  2 25  1  0
  3 26  1  0
  3 27  1  0
  4 28  1  0
  4 29  1  0
  5 30  1  0
  5 31  1  0
  5 32  1  0
  6 33  1  0
 10 34  1  6
 11 35  1  0
 11 36  1  0
 13 37  1  0
 14 38  1  0
 15 39  1  0
 16 40  1  0
 17 41  1  0
 18 42  1  0
 19 43  1  0
 19 44  1  0
 19 45  1  0
 20 46  1  0
 20 47  1  0
 20 48  1  0
 21 49  1  0
M  END
$$$$
