
     RDKit          3D

 29 30  0  0  0  0  0  0  0  0999 V2000
    1.1707    1.4037   -2.3600 O   0  0  0  0  0  0  0  0  0  0  0  0
    2.4870    1.3043   -1.9173 C   0  0  0  0  0  0  0  0  0  0  0  0
    3.4050    1.8049   -2.6223 O   0  0  0  0  0  0  0  0  0  0  0  0
    2.8156    0.6208   -0.6380 C   0  0  0  0  0  0  0  0  0  0  0  0
    4.1635    0.5110   -0.2412 C   0  0  0  0  0  0  0  0  0  0  0  0
    4.5067   -0.1225    0.9541 C   0  0  0  0  0  0  0  0  0  0  0  0
    3.5133   -0.6483    1.7766 C   0  0  0  0  0  0  0  0  0  0  0  0
    2.1728   -0.5511    1.4033 C   0  0  0  0  0  0  0  0  0  0  0  0
    1.8087    0.0665    0.1906 C   0  0  0  0  0  0  0  0  0  0  0  0
    0.4596    0.1794   -0.1812 O   0  0  0  0  0  0  0  0  0  0  0  0
   -0.5481   -0.7502    0.1149 C   0  0  0  0  0  0  0  0  0  0  0  0
   -0.2426   -1.9152    0.4897 O   0  0  0  0  0  0  0  0  0  0  0  0
   -1.9708   -0.3697   -0.0775 C   0  0  0  0  0  0  0  0  0  0  0  0
   -2.2779    0.9103   -0.5788 C   0  0  0  0  0  0  0  0  0  0  0  0
   -3.6049    1.3007   -0.7733 C   0  0  0  0  0  0  0  0  0  0  0  0
   -4.6447    0.4227   -0.4704 C   0  0  0  0  0  0  0  0  0  0  0  0
   -4.3612   -0.8488    0.0291 C   0  0  0  0  0  0  0  0  0  0  0  0
   -3.0327   -1.2544    0.2299 C   0  0  0  0  0  0  0  0  0  0  0  0
   -2.7769   -2.5295    0.7347 O   0  0  0  0  0  0  0  0  0  0  0  0
    0.9472    1.8695   -3.2314 H   0  0  0  0  0  0  0  0  0  0  0  0
    4.9576    0.9164   -0.8558 H   0  0  0  0  0  0  0  0  0  0  0  0
    5.5461   -0.1979    1.2469 H   0  0  0  0  0  0  0  0  0  0  0  0
    3.7815   -1.1244    2.7110 H   0  0  0  0  0  0  0  0  0  0  0  0
    1.4192   -0.9324    2.0788 H   0  0  0  0  0  0  0  0  0  0  0  0
   -1.4926    1.6141   -0.8242 H   0  0  0  0  0  0  0  0  0  0  0  0
   -3.8269    2.2870   -1.1602 H   0  0  0  0  0  0  0  0  0  0  0  0
   -5.6720    0.7280   -0.6222 H   0  0  0  0  0  0  0  0  0  0  0  0
   -5.1769   -1.5214    0.2620 H   0  0  0  0  0  0  0  0  0  0  0  0
   -3.5260   -3.1736    0.9602 H   0  0  0  0  0  0  0  0  0  0  0  0
  1  2  1  0
  2  3  2  0
  2  4  1  0
  4  5  2  0
  5  6  1  0
  6  7  2  0
  7  8  1  0
  8  9  2  0
  9 10  1  0
 10 11  1  0
 11 12  2  0
 11 13  1  0
 13 14  2  0
 14 15  1  0
 15 16  2  0
 16 17  1  0
 17 18  2  0
 18 19  1  0
  9  4  1  0
 18 13  1  0
  1 20  1  0
  5 21  1  0
  6 22  1  0
  7 23  1  0
  8 24  1  0
 14 25  1  0
 15 26  1  0
 16 27  1  0
 17 28  1  0
 19 29  1  0
M  END
$$$$
