
     RDKit          3D

 60 61  0  0  0  0  0  0  0  0999 V2000
   -2.1007    3.4282   -3.0943 N   0  0  0  0  0  0  0  0  0  0  0  0
   -2.1933    2.6677   -1.8500 C   0  0  0  0  0  0  0  0  0  0  0  0
   -0.8962    2.7795   -1.0311 C   0  0  0  0  0  0  0  0  0  0  0  0
   -1.0070    2.1123    0.3486 C   0  0  0  0  0  0  0  0  0  0  0  0
   -1.1656    0.5825    0.2561 C   0  0  0  0  0  0  0  0  0  0  0  0
   -0.9153   -0.1244    1.6166 C   0  0  2  0  0  0  0  0  0  0  0  0
    0.1865   -1.1185    1.5364 N   0  0  0  0  0  0  0  0  0  0  0  0
    1.5720   -0.6069    1.6673 C   0  0  1  0  0  0  0  0  0  0  0  0
    2.0732    0.0427    0.3595 C   0  0  0  0  0  0  0  0  0  0  0  0
    3.6003    0.2009    0.3320 C   0  0  0  0  0  0  0  0  0  0  0  0
    4.0333    0.8596   -0.9504 C   0  0  0  0  0  0  0  0  0  0  0  0
    4.3584    0.0815   -2.0741 C   0  0  0  0  0  0  0  0  0  0  0  0
    4.7175    0.6977   -3.2769 C   0  0  0  0  0  0  0  0  0  0  0  0
    4.7436    2.0921   -3.3694 C   0  0  0  0  0  0  0  0  0  0  0  0
    4.4068    2.8728   -2.2602 C   0  0  0  0  0  0  0  0  0  0  0  0
    4.0480    2.2607   -1.0553 C   0  0  0  0  0  0  0  0  0  0  0  0
    1.7629    0.2594    2.8913 C   0  0  0  0  0  0  0  0  0  0  0  0
    1.8711   -0.3408    4.1416 O   0  0  0  0  0  0  0  0  0  0  0  0
    1.7858    1.5169    2.7984 O   0  0  0  0  0  0  0  0  0  0  0  0
   -2.1930   -0.7981    2.0898 C   0  0  0  0  0  0  0  0  0  0  0  0
   -2.8774   -0.2237    2.9802 O   0  0  0  0  0  0  0  0  0  0  0  0
   -2.6381   -2.0740    1.5801 N   0  0  0  0  0  0  0  0  0  0  0  0
   -3.4688   -2.9620    2.3790 C   0  0  0  0  0  0  0  0  0  0  0  0
   -3.7132   -4.1958    1.5186 C   0  0  0  0  0  0  0  0  0  0  0  0
   -2.6769   -4.1306    0.4011 C   0  0  0  0  0  0  0  0  0  0  0  0
   -2.2931   -2.6557    0.2850 C   0  0  1  0  0  0  0  0  0  0  0  0
   -3.0691   -1.9932   -0.8195 C   0  0  0  0  0  0  0  0  0  0  0  0
   -2.4394   -1.7061   -2.0265 O   0  0  0  0  0  0  0  0  0  0  0  0
   -4.2915   -1.7229   -0.6695 O   0  0  0  0  0  0  0  0  0  0  0  0
   -1.9272    4.4338   -2.8642 H   0  0  0  0  0  0  0  0  0  0  0  0
   -1.2801    3.0806   -3.6423 H   0  0  0  0  0  0  0  0  0  0  0  0
   -3.0499    3.0525   -1.2550 H   0  0  0  0  0  0  0  0  0  0  0  0
   -2.3953    1.6045   -2.1004 H   0  0  0  0  0  0  0  0  0  0  0  0
   -0.0521    2.3289   -1.5981 H   0  0  0  0  0  0  0  0  0  0  0  0
   -0.6600    3.8546   -0.8750 H   0  0  0  0  0  0  0  0  0  0  0  0
   -1.8688    2.5406    0.9060 H   0  0  0  0  0  0  0  0  0  0  0  0
   -0.0920    2.3682    0.9223 H   0  0  0  0  0  0  0  0  0  0  0  0
   -2.1999    0.3929   -0.0964 H   0  0  0  0  0  0  0  0  0  0  0  0
   -0.4986    0.1682   -0.5272 H   0  0  0  0  0  0  0  0  0  0  0  0
   -0.6777    0.6352    2.3913 H   0  0  0  0  0  0  0  0  0  0  0  0
    0.0599   -1.8260    2.3001 H   0  0  0  0  0  0  0  0  0  0  0  0
    2.2215   -1.4983    1.8245 H   0  0  0  0  0  0  0  0  0  0  0  0
    1.6119    1.0388    0.2190 H   0  0  0  0  0  0  0  0  0  0  0  0
    1.7743   -0.6019   -0.4965 H   0  0  0  0  0  0  0  0  0  0  0  0
    3.9375    0.8148    1.1951 H   0  0  0  0  0  0  0  0  0  0  0  0
    4.0841   -0.7961    0.4267 H   0  0  0  0  0  0  0  0  0  0  0  0
    4.3304   -0.9998   -2.0192 H   0  0  0  0  0  0  0  0  0  0  0  0
    4.9711    0.0942   -4.1389 H   0  0  0  0  0  0  0  0  0  0  0  0
    5.0196    2.5674   -4.3018 H   0  0  0  0  0  0  0  0  0  0  0  0
    4.4196    3.9525   -2.3352 H   0  0  0  0  0  0  0  0  0  0  0  0
    3.7773    2.8765   -0.2064 H   0  0  0  0  0  0  0  0  0  0  0  0
    1.9827    0.2188    4.9786 H   0  0  0  0  0  0  0  0  0  0  0  0
   -4.4304   -2.4673    2.6365 H   0  0  0  0  0  0  0  0  0  0  0  0
   -2.9270   -3.2414    3.3088 H   0  0  0  0  0  0  0  0  0  0  0  0
   -3.6114   -5.1313    2.1104 H   0  0  0  0  0  0  0  0  0  0  0  0
   -4.7342   -4.1497    1.0798 H   0  0  0  0  0  0  0  0  0  0  0  0
   -1.7818   -4.7179    0.7042 H   0  0  0  0  0  0  0  0  0  0  0  0
   -3.0725   -4.5565   -0.5478 H   0  0  0  0  0  0  0  0  0  0  0  0
   -1.2066   -2.5769    0.0801 H   0  0  0  0  0  0  0  0  0  0  0  0
   -2.9452   -1.2618   -2.7834 H   0  0  0  0  0  0  0  0  0  0  0  0
  1  2  1  0
  2  3  1  0
  3  4  1  0
  4  5  1  0
  5  6  1  0
  6  7  1  0
  7  8  1  0
  8  9  1  0
  9 10  1  0
 10 11  1  0
 11 12  2  0
 12 13  1  0
 13 14  2  0
 14 15  1  0
 15 16  2  0
  8 17  1  0
 17 18  1  0
 17 19  2  0
  6 20  1  0
 20 21  2  0
 20 22  1  0
 22 23  1  0
 23 24  1  0
 24 25  1  0
 25 26  1  0
 26 27  1  0
 27 28  1  0
 27 29  2  0
 16 11  1  0
 26 22  1  0
  1 30  1  0
  1 31  1  0
  2 32  1  0
  2 33  1  0
  3 34  1  0
  3 35  1  0
  4 36  1  0
  4 37  1  0
  5 38  1  0
  5 39  1  0
  6 40  1  1
  7 41  1  0
  8 42  1  1
  9 43  1  0
  9 44  1  0
 10 45  1  0
 10 46  1  0
 12 47  1  0
 13 48  1  0
 14 49  1  0
 15 50  1  0
 16 51  1  0
 18 52  1  0
 23 53  1  0
 23 54  1  0
 24 55  1  0
 24 56  1  0
 25 57  1  0
 25 58  1  0
 26 59  1  6
 28 60  1  0
M  END
$$$$
