
     RDKit          3D

 32 32  0  0  0  0  0  0  0  0999 V2000
    1.0540   -0.3240    2.4737 C   0  0  0  0  0  0  0  0  0  0  0  0
    0.4700   -0.0081    1.0799 C   0  0  2  0  0  0  0  0  0  0  0  0
    1.2397    1.0003    0.4111 O   0  0  0  0  0  0  0  0  0  0  0  0
    2.8424    0.5813   -0.0429 P   0  0  0  0  0  5  0  0  0  0  0  0
    2.8285   -0.2400   -1.5235 O   0  0  0  0  0  0  0  0  0  0  0  0
    3.7098    2.0201   -0.2459 O   0  0  0  0  0  0  0  0  0  0  0  0
    3.5493   -0.2547    0.9993 O   0  0  0  0  0  0  0  0  0  0  0  0
   -0.8185    0.5428    1.3370 O   0  0  0  0  0  0  0  0  0  0  0  0
   -1.4922    0.9509    0.1508 C   0  0  2  0  0  0  0  0  0  0  0  0
   -2.7971    1.6478    0.5728 C   0  0  0  0  0  0  0  0  0  0  0  0
   -3.4429    2.2329   -0.5261 O   0  0  0  0  0  0  0  0  0  0  0  0
   -1.7775   -0.2614   -0.7688 C   0  0  1  0  0  0  0  0  0  0  0  0
   -2.3309    0.1804   -1.9822 O   0  0  0  0  0  0  0  0  0  0  0  0
   -0.4690   -1.0248   -1.0501 C   0  0  2  0  0  0  0  0  0  0  0  0
   -0.7241   -2.2057   -1.7706 O   0  0  0  0  0  0  0  0  0  0  0  0
    0.2516   -1.3301    0.2753 C   0  0  1  0  0  0  0  0  0  0  0  0
    1.4531   -2.0202    0.0470 O   0  0  0  0  0  0  0  0  0  0  0  0
    1.4574    0.5996    2.9407 H   0  0  0  0  0  0  0  0  0  0  0  0
    1.8466   -1.0969    2.4393 H   0  0  0  0  0  0  0  0  0  0  0  0
    0.2598   -0.7270    3.1392 H   0  0  0  0  0  0  0  0  0  0  0  0
    3.7784   -0.4518   -1.7067 H   0  0  0  0  0  0  0  0  0  0  0  0
    4.6102    1.7352   -0.5444 H   0  0  0  0  0  0  0  0  0  0  0  0
   -0.8878    1.7044   -0.4038 H   0  0  0  0  0  0  0  0  0  0  0  0
   -3.4836    0.9117    1.0433 H   0  0  0  0  0  0  0  0  0  0  0  0
   -2.5748    2.4271    1.3376 H   0  0  0  0  0  0  0  0  0  0  0  0
   -2.9313    3.0528   -0.7536 H   0  0  0  0  0  0  0  0  0  0  0  0
   -2.4938   -0.9387   -0.2445 H   0  0  0  0  0  0  0  0  0  0  0  0
   -2.8068   -0.5942   -2.3810 H   0  0  0  0  0  0  0  0  0  0  0  0
    0.1865   -0.3819   -1.6765 H   0  0  0  0  0  0  0  0  0  0  0  0
   -1.3058   -2.7830   -1.2097 H   0  0  0  0  0  0  0  0  0  0  0  0
   -0.4184   -1.9786    0.8917 H   0  0  0  0  0  0  0  0  0  0  0  0
    1.2171   -2.9663   -0.1392 H   0  0  0  0  0  0  0  0  0  0  0  0
  1  2  1  0
  2  3  1  6
  3  4  1  0
  4  5  1  0
  4  6  1  0
  4  7  2  0
  2  8  1  0
  8  9  1  0
  9 10  1  0
 10 11  1  0
  9 12  1  0
 12 13  1  0
 12 14  1  0
 14 15  1  0
 14 16  1  0
 16 17  1  0
 16  2  1  0
  1 18  1  0
  1 19  1  0
  1 20  1  0
  5 21  1  0
  6 22  1  0
  9 23  1  6
 10 24  1  0
 10 25  1  0
 11 26  1  0
 12 27  1  1
 13 28  1  0
 14 29  1  6
 15 30  1  0
 16 31  1  1
 17 32  1  0
M  END
$$$$
