
     RDKit          3D

 59 62  0  0  0  0  0  0  0  0999 V2000
    1.5792    1.0910   -0.5699 C   0  0  1  0  0  0  0  0  0  0  0  0
    0.0481    0.8723   -0.5757 C   0  0  2  0  0  0  0  0  0  0  0  0
   -0.6528    2.2116   -0.3936 C   0  0  0  0  0  0  0  0  0  0  0  0
   -1.9713    2.4272   -0.6388 C   0  0  0  0  0  0  0  0  0  0  0  0
   -2.5309    3.8031   -0.3520 C   0  0  0  0  0  0  0  0  0  0  0  0
   -2.5044    4.0604    1.0255 O   0  0  0  0  0  0  0  0  0  0  0  0
   -2.9171    1.3591   -1.1945 C   0  0  0  0  0  0  0  0  0  0  0  0
   -2.7870   -0.0801   -0.5895 C   0  0  2  0  0  0  0  0  0  0  0  0
   -2.2810   -0.9677   -1.5566 O   0  0  0  0  0  0  0  0  0  0  0  0
   -4.0724   -0.6533   -0.0717 C   0  0  0  0  0  0  0  0  0  0  0  0
   -5.1669   -0.6478   -0.6964 O   0  0  0  0  0  0  0  0  0  0  0  0
   -3.8505   -1.3332    1.1930 C   0  0  0  0  0  0  0  0  0  0  0  0
   -4.8280   -2.2335    1.8786 C   0  0  0  0  0  0  0  0  0  0  0  0
   -2.6031   -1.1329    1.5893 C   0  0  0  0  0  0  0  0  0  0  0  0
   -1.9265   -0.1285    0.7063 C   0  0  1  0  0  0  0  0  0  0  0  0
   -0.3637   -0.1912    0.5059 C   0  0  2  0  0  0  0  0  0  0  0  0
    0.2459    0.1053    1.7462 O   0  0  0  0  0  0  0  0  0  0  0  0
    0.2244   -1.5612    0.0074 C   0  0  2  0  0  0  0  0  0  0  0  0
   -0.2100   -2.7786    0.8474 C   0  0  0  0  0  0  0  0  0  0  0  0
    1.7853   -1.5256   -0.0600 C   0  0  1  0  0  0  0  0  0  0  0  0
    2.2503   -2.4678   -0.9958 O   0  0  0  0  0  0  0  0  0  0  0  0
    2.4595   -0.1522   -0.3500 C   0  0  2  0  0  0  0  0  0  0  0  0
    3.6002    0.1396    0.4602 O   0  0  0  0  0  0  0  0  0  0  0  0
    4.8181   -0.5357    0.3339 C   0  0  0  0  0  0  0  0  0  0  0  0
    5.9557   -0.1672    1.2232 C   0  0  0  0  0  0  0  0  0  0  0  0
    4.9810   -1.4125   -0.5574 O   0  0  0  0  0  0  0  0  0  0  0  0
    2.4456    0.5428   -1.7270 C   0  0  0  0  0  0  0  0  0  0  0  0
    3.6454    1.4361   -2.0777 C   0  0  0  0  0  0  0  0  0  0  0  0
    1.7921   -0.1655   -2.9260 C   0  0  0  0  0  0  0  0  0  0  0  0
    1.9752    1.9754   -0.0227 H   0  0  0  0  0  0  0  0  0  0  0  0
   -0.2627    0.5249   -1.5777 H   0  0  0  0  0  0  0  0  0  0  0  0
   -0.0643    3.0476   -0.0220 H   0  0  0  0  0  0  0  0  0  0  0  0
   -1.9145    4.5667   -0.8727 H   0  0  0  0  0  0  0  0  0  0  0  0
   -3.5689    3.9141   -0.7377 H   0  0  0  0  0  0  0  0  0  0  0  0
   -3.2212    3.5046    1.4298 H   0  0  0  0  0  0  0  0  0  0  0  0
   -2.7457    1.3185   -2.2917 H   0  0  0  0  0  0  0  0  0  0  0  0
   -3.9656    1.7074   -1.0757 H   0  0  0  0  0  0  0  0  0  0  0  0
   -2.9288   -1.0049   -2.3093 H   0  0  0  0  0  0  0  0  0  0  0  0
   -4.7101   -3.2677    1.4936 H   0  0  0  0  0  0  0  0  0  0  0  0
   -4.6543   -2.2297    2.9757 H   0  0  0  0  0  0  0  0  0  0  0  0
   -5.8649   -1.8882    1.6842 H   0  0  0  0  0  0  0  0  0  0  0  0
   -2.1995   -1.5101    2.5202 H   0  0  0  0  0  0  0  0  0  0  0  0
   -2.1286    0.8075    1.2753 H   0  0  0  0  0  0  0  0  0  0  0  0
    0.0413    1.0476    1.9821 H   0  0  0  0  0  0  0  0  0  0  0  0
   -0.1396   -1.7695   -1.0147 H   0  0  0  0  0  0  0  0  0  0  0  0
   -1.2569   -3.0611    0.6173 H   0  0  0  0  0  0  0  0  0  0  0  0
    0.3995   -3.6714    0.5949 H   0  0  0  0  0  0  0  0  0  0  0  0
   -0.0901   -2.5768    1.9326 H   0  0  0  0  0  0  0  0  0  0  0  0
    2.1549   -1.8018    0.9586 H   0  0  0  0  0  0  0  0  0  0  0  0
    2.4826   -3.2968   -0.5017 H   0  0  0  0  0  0  0  0  0  0  0  0
    5.5703    0.2555    2.1746 H   0  0  0  0  0  0  0  0  0  0  0  0
    6.5886    0.5911    0.7173 H   0  0  0  0  0  0  0  0  0  0  0  0
    6.5686   -1.0645    1.4516 H   0  0  0  0  0  0  0  0  0  0  0  0
    3.3458    2.1667   -2.8581 H   0  0  0  0  0  0  0  0  0  0  0  0
    4.4699    0.8088   -2.4762 H   0  0  0  0  0  0  0  0  0  0  0  0
    4.0275    2.0066   -1.2046 H   0  0  0  0  0  0  0  0  0  0  0  0
    2.5798   -0.6687   -3.5248 H   0  0  0  0  0  0  0  0  0  0  0  0
    1.0525   -0.9348   -2.6541 H   0  0  0  0  0  0  0  0  0  0  0  0
    1.2938    0.5889   -3.5700 H   0  0  0  0  0  0  0  0  0  0  0  0
  1  2  1  0
  2  3  1  0
  3  4  2  0
  4  5  1  0
  5  6  1  0
  4  7  1  0
  7  8  1  0
  8  9  1  6
  8 10  1  0
 10 11  2  0
 10 12  1  0
 12 13  1  0
 12 14  2  0
 14 15  1  0
 15 16  1  0
 16 17  1  1
 16 18  1  0
 18 19  1  0
 18 20  1  0
 20 21  1  0
 20 22  1  0
 22 23  1  1
 23 24  1  0
 24 25  1  0
 24 26  2  0
 22 27  1  0
 27 28  1  0
 27 29  1  0
 22  1  1  0
 27  1  1  0
 16  2  1  0
 15  8  1  0
  1 30  1  1
  2 31  1  6
  3 32  1  0
  5 33  1  0
  5 34  1  0
  6 35  1  0
  7 36  1  0
  7 37  1  0
  9 38  1  0
 13 39  1  0
 13 40  1  0
 13 41  1  0
 14 42  1  0
 15 43  1  1
 17 44  1  0
 18 45  1  6
 19 46  1  0
 19 47  1  0
 19 48  1  0
 20 49  1  1
 21 50  1  0
 25 51  1  0
 25 52  1  0
 25 53  1  0
 28 54  1  0
 28 55  1  0
 28 56  1  0
 29 57  1  0
 29 58  1  0
 29 59  1  0
M  END
$$$$
