
     RDKit          3D

 28 31  0  0  0  0  0  0  0  0999 V2000
   -4.9292   -0.0598    0.1744 O   0  0  0  0  0  0  0  0  0  0  0  0
   -3.5370   -0.0403    0.1069 C   0  0  0  0  0  0  0  0  0  0  0  0
   -2.8624    1.1917    0.1023 C   0  0  0  0  0  0  0  0  0  0  0  0
   -3.6007    2.3740    0.1654 O   0  0  0  0  0  0  0  0  0  0  0  0
   -1.4588    1.2202    0.0346 C   0  0  0  0  0  0  0  0  0  0  0  0
   -0.7466    0.0095   -0.0279 C   0  0  0  0  0  0  0  0  0  0  0  0
   -1.4124   -1.2262   -0.0238 C   0  0  0  0  0  0  0  0  0  0  0  0
   -2.8157   -1.2447    0.0442 C   0  0  0  0  0  0  0  0  0  0  0  0
   -0.6323   -2.3987   -0.0887 C   0  0  0  0  0  0  0  0  0  0  0  0
   -1.1785   -3.5344   -0.0881 O   0  0  0  0  0  0  0  0  0  0  0  0
    0.6976   -2.3193   -0.1517 O   0  0  0  0  0  0  0  0  0  0  0  0
    1.3574   -1.1608   -0.1573 C   0  0  0  0  0  0  0  0  0  0  0  0
    0.6454    0.0486   -0.0949 C   0  0  0  0  0  0  0  0  0  0  0  0
    1.3107    1.2823   -0.0990 C   0  0  0  0  0  0  0  0  0  0  0  0
    2.7127    1.2994   -0.1669 C   0  0  0  0  0  0  0  0  0  0  0  0
    3.4416    0.1016   -0.2299 C   0  0  0  0  0  0  0  0  0  0  0  0
    4.8335    0.1945   -0.2956 O   0  0  0  0  0  0  0  0  0  0  0  0
    2.7585   -1.1426   -0.2251 C   0  0  0  0  0  0  0  0  0  0  0  0
    3.4286   -2.3671   -0.2859 O   0  0  0  0  0  0  0  0  0  0  0  0
    0.5317    2.4559   -0.0341 C   0  0  0  0  0  0  0  0  0  0  0  0
    1.0790    3.5911   -0.0348 O   0  0  0  0  0  0  0  0  0  0  0  0
   -0.7983    2.3780    0.0289 O   0  0  0  0  0  0  0  0  0  0  0  0
   -5.4481   -0.9302    0.1797 H   0  0  0  0  0  0  0  0  0  0  0  0
   -3.1582    3.2853    0.1647 H   0  0  0  0  0  0  0  0  0  0  0  0
   -3.3526   -2.1855    0.0488 H   0  0  0  0  0  0  0  0  0  0  0  0
    3.2493    2.2406   -0.1715 H   0  0  0  0  0  0  0  0  0  0  0  0
    5.4522   -0.6018   -0.3441 H   0  0  0  0  0  0  0  0  0  0  0  0
    4.4325   -2.4612   -0.3370 H   0  0  0  0  0  0  0  0  0  0  0  0
  1  2  1  0
  2  3  2  0
  3  4  1  0
  3  5  1  0
  5  6  2  0
  6  7  1  0
  7  8  2  0
  7  9  1  0
  9 10  2  0
  9 11  1  0
 11 12  1  0
 12 13  2  0
 13 14  1  0
 14 15  2  0
 15 16  1  0
 16 17  1  0
 16 18  2  0
 18 19  1  0
 14 20  1  0
 20 21  2  0
 20 22  1  0
  8  2  1  0
 18 12  1  0
 22  5  1  0
 13  6  1  0
  1 23  1  0
  4 24  1  0
  8 25  1  0
 15 26  1  0
 17 27  1  0
 19 28  1  0
M  END
$$$$
