
     RDKit          3D

 47 49  0  0  0  0  0  0  0  0999 V2000
   -8.3144    0.5662    0.5326 C   0  0  0  0  0  0  0  0  0  0  0  0
   -7.0784    0.5496   -0.2659 N   0  0  0  0  0  0  0  0  0  0  0  0
   -6.9959    1.7842   -1.0670 C   0  0  0  0  0  0  0  0  0  0  0  0
   -5.9027    0.4203    0.6199 C   0  0  0  0  0  0  0  0  0  0  0  0
   -4.7073   -0.0617   -0.1522 C   0  0  0  0  0  0  0  0  0  0  0  0
   -3.5187   -0.1973    0.4440 C   0  0  0  0  0  0  0  0  0  0  0  0
   -2.3211   -0.6703   -0.2760 C   0  0  0  0  0  0  0  0  0  0  0  0
   -2.3871   -0.9466   -1.5054 O   0  0  0  0  0  0  0  0  0  0  0  0
   -1.0716   -0.7738    0.4248 N   0  0  0  0  0  0  0  0  0  0  0  0
    0.1005   -1.4147   -0.1082 C   0  0  0  0  0  0  0  0  0  0  0  0
    0.0029   -2.5614   -0.9152 C   0  0  0  0  0  0  0  0  0  0  0  0
    1.1535   -3.1745   -1.4148 C   0  0  0  0  0  0  0  0  0  0  0  0
    2.4160   -2.6651   -1.0989 C   0  0  0  0  0  0  0  0  0  0  0  0
    3.5279   -3.2580   -1.6044 N   0  0  0  0  0  0  0  0  0  0  0  0
    4.7650   -2.7846   -1.3146 C   0  0  0  0  0  0  0  0  0  0  0  0
    4.9093   -1.7091   -0.5002 N   0  0  0  0  0  0  0  0  0  0  0  0
    3.8353   -1.0683    0.0377 C   0  0  0  0  0  0  0  0  0  0  0  0
    4.0521    0.0328    0.9372 N   0  0  0  0  0  0  0  0  0  0  0  0
    5.1684    0.9334    0.8298 C   0  0  0  0  0  0  0  0  0  0  0  0
    5.7598    1.2215   -0.4148 C   0  0  0  0  0  0  0  0  0  0  0  0
    6.8323    2.1166   -0.4970 C   0  0  0  0  0  0  0  0  0  0  0  0
    7.6311    2.4968   -2.1897 Br  0  0  0  0  0  0  0  0  0  0  0  0
    7.3139    2.7393    0.6585 C   0  0  0  0  0  0  0  0  0  0  0  0
    6.7198    2.4737    1.8946 C   0  0  0  0  0  0  0  0  0  0  0  0
    5.6480    1.5801    1.9800 C   0  0  0  0  0  0  0  0  0  0  0  0
    2.5361   -1.5376   -0.2563 C   0  0  0  0  0  0  0  0  0  0  0  0
    1.3688   -0.9168    0.2297 C   0  0  0  0  0  0  0  0  0  0  0  0
   -9.2004    0.6755   -0.1297 H   0  0  0  0  0  0  0  0  0  0  0  0
   -8.4317   -0.3971    1.0742 H   0  0  0  0  0  0  0  0  0  0  0  0
   -8.3069    1.3996    1.2707 H   0  0  0  0  0  0  0  0  0  0  0  0
   -6.0714    1.7884   -1.6826 H   0  0  0  0  0  0  0  0  0  0  0  0
   -7.0007    2.6895   -0.4194 H   0  0  0  0  0  0  0  0  0  0  0  0
   -7.8545    1.8400   -1.7702 H   0  0  0  0  0  0  0  0  0  0  0  0
   -6.0997   -0.3296    1.4192 H   0  0  0  0  0  0  0  0  0  0  0  0
   -5.6688    1.3897    1.1174 H   0  0  0  0  0  0  0  0  0  0  0  0
   -4.8209   -0.3046   -1.2025 H   0  0  0  0  0  0  0  0  0  0  0  0
   -3.4229    0.0450    1.4960 H   0  0  0  0  0  0  0  0  0  0  0  0
   -0.9842   -0.2782    1.3411 H   0  0  0  0  0  0  0  0  0  0  0  0
   -0.9604   -2.9961   -1.1456 H   0  0  0  0  0  0  0  0  0  0  0  0
    1.0613   -4.0508   -2.0448 H   0  0  0  0  0  0  0  0  0  0  0  0
    5.6387   -3.2699   -1.7269 H   0  0  0  0  0  0  0  0  0  0  0  0
    3.4462    0.1066    1.7851 H   0  0  0  0  0  0  0  0  0  0  0  0
    5.3803    0.7702   -1.3221 H   0  0  0  0  0  0  0  0  0  0  0  0
    8.1425    3.4331    0.5984 H   0  0  0  0  0  0  0  0  0  0  0  0
    7.0889    2.9618    2.7874 H   0  0  0  0  0  0  0  0  0  0  0  0
    5.1960    1.3844    2.9443 H   0  0  0  0  0  0  0  0  0  0  0  0
    1.4251   -0.0320    0.8489 H   0  0  0  0  0  0  0  0  0  0  0  0
  1  2  1  0
  2  3  1  0
  2  4  1  0
  4  5  1  0
  5  6  2  0
  6  7  1  0
  7  8  2  0
  7  9  1  0
  9 10  1  0
 10 11  2  0
 11 12  1  0
 12 13  2  0
 13 14  1  0
 14 15  2  0
 15 16  1  0
 16 17  2  0
 17 18  1  0
 18 19  1  0
 19 20  2  0
 20 21  1  0
 21 22  1  0
 21 23  2  0
 23 24  1  0
 24 25  2  0
 17 26  1  0
 26 27  2  0
 27 10  1  0
 26 13  1  0
 25 19  1  0
  1 28  1  0
  1 29  1  0
  1 30  1  0
  3 31  1  0
  3 32  1  0
  3 33  1  0
  4 34  1  0
  4 35  1  0
  5 36  1  0
  6 37  1  0
  9 38  1  0
 11 39  1  0
 12 40  1  0
 15 41  1  0
 18 42  1  0
 20 43  1  0
 23 44  1  0
 24 45  1  0
 25 46  1  0
 27 47  1  0
M  END
$$$$
