
     RDKit          3D

 17 16  0  0  0  0  0  0  0  0999 V2000
    2.6732    0.0262   -0.4609 C   0  0  0  0  0  0  0  0  0  0  0  0
    1.3319    1.0907    0.1625 S   0  0  0  0  0  0  0  0  0  0  0  0
    0.3818   -0.2474    0.9857 C   0  0  0  0  0  0  0  0  0  0  0  0
   -0.8823   -0.6503    0.2070 C   0  0  2  0  0  0  0  0  0  0  0  0
   -0.5401   -1.2121   -1.1031 N   0  0  0  0  0  0  0  0  0  0  0  0
   -1.8556    0.4967    0.0921 C   0  0  0  0  0  0  0  0  0  0  0  0
   -2.8409    0.6585    1.0612 O   0  0  0  0  0  0  0  0  0  0  0  0
   -1.7603    1.3323   -0.8473 O   0  0  0  0  0  0  0  0  0  0  0  0
    2.2617   -0.7835   -1.0977 H   0  0  0  0  0  0  0  0  0  0  0  0
    3.3693    0.6405   -1.0678 H   0  0  0  0  0  0  0  0  0  0  0  0
    3.2334   -0.4141    0.3900 H   0  0  0  0  0  0  0  0  0  0  0  0
    0.0822    0.1209    1.9903 H   0  0  0  0  0  0  0  0  0  0  0  0
    1.0133   -1.1462    1.1529 H   0  0  0  0  0  0  0  0  0  0  0  0
   -1.3811   -1.4514    0.7968 H   0  0  0  0  0  0  0  0  0  0  0  0
   -0.1790   -0.4604   -1.7340 H   0  0  0  0  0  0  0  0  0  0  0  0
   -1.4129   -1.5876   -1.5412 H   0  0  0  0  0  0  0  0  0  0  0  0
   -3.4947    1.4309    1.0136 H   0  0  0  0  0  0  0  0  0  0  0  0
  1  2  1  0
  2  3  1  0
  3  4  1  0
  4  5  1  0
  4  6  1  0
  6  7  1  0
  6  8  2  0
  1  9  1  0
  1 10  1  0
  1 11  1  0
  3 12  1  0
  3 13  1  0
  4 14  1  1
  5 15  1  0
  5 16  1  0
  7 17  1  0
M  END
$$$$
