
     RDKit          3D

 70 72  0  0  0  0  0  0  0  0999 V2000
   -3.6401   -0.8289   -3.9197 C   0  0  0  0  0  0  0  0  0  0  0  0
   -3.7846    0.3613   -2.9611 C   0  0  0  0  0  0  0  0  0  0  0  0
   -5.0130    1.1976   -3.3385 C   0  0  0  0  0  0  0  0  0  0  0  0
   -3.8920   -0.1139   -1.4963 C   0  0  0  0  0  0  0  0  0  0  0  0
   -2.6759   -0.8431   -1.0806 N   0  0  0  0  0  0  0  0  0  0  0  0
   -1.5800    0.0728   -0.6895 C   0  0  0  0  0  0  0  0  0  0  0  0
   -0.2299   -0.4679   -1.2104 C   0  0  1  0  0  0  0  0  0  0  0  0
   -0.1877   -0.4755   -2.6173 O   0  0  0  0  0  0  0  0  0  0  0  0
    0.9953    0.2669   -0.6050 C   0  0  2  0  0  0  0  0  0  0  0  0
    1.1181    1.7395   -1.0564 C   0  0  0  0  0  0  0  0  0  0  0  0
    2.2388    2.4384   -0.3293 C   0  0  0  0  0  0  0  0  0  0  0  0
    2.0388    2.9276    0.9726 C   0  0  0  0  0  0  0  0  0  0  0  0
    3.0920    3.5281    1.6690 C   0  0  0  0  0  0  0  0  0  0  0  0
    4.3523    3.6380    1.0749 C   0  0  0  0  0  0  0  0  0  0  0  0
    4.5617    3.1468   -0.2165 C   0  0  0  0  0  0  0  0  0  0  0  0
    3.5108    2.5475   -0.9174 C   0  0  0  0  0  0  0  0  0  0  0  0
    2.2197   -0.4613   -0.9594 N   0  0  0  0  0  0  0  0  0  0  0  0
    3.2703   -0.7277   -0.0222 C   0  0  0  0  0  0  0  0  0  0  0  0
    3.1163   -0.4676    1.2030 O   0  0  0  0  0  0  0  0  0  0  0  0
    4.4756   -1.2646   -0.4851 O   0  0  0  0  0  0  0  0  0  0  0  0
    5.5867   -1.5358    0.3690 C   0  0  1  0  0  0  0  0  0  0  0  0
    5.3492   -2.7391    1.2327 C   0  0  0  0  0  0  0  0  0  0  0  0
    6.7329   -3.3464    1.3539 C   0  0  0  0  0  0  0  0  0  0  0  0
    7.5448   -2.8901    0.2946 O   0  0  0  0  0  0  0  0  0  0  0  0
    6.8008   -1.9449   -0.4390 C   0  0  0  0  0  0  0  0  0  0  0  0
   -3.0606   -1.9436    0.2281 S   0  0  0  0  0  6  0  0  0  0  0  0
   -1.8125   -2.6352    0.7015 O   0  0  0  0  0  0  0  0  0  0  0  0
   -4.0113   -2.9964   -0.2705 O   0  0  0  0  0  0  0  0  0  0  0  0
   -3.8019   -1.0911    1.5857 C   0  0  0  0  0  0  0  0  0  0  0  0
   -3.0132   -0.6369    2.6528 C   0  0  0  0  0  0  0  0  0  0  0  0
   -3.6000    0.0469    3.7216 C   0  0  0  0  0  0  0  0  0  0  0  0
   -4.9821    0.2806    3.7365 C   0  0  0  0  0  0  0  0  0  0  0  0
   -5.5822    0.9809    4.8293 N   0  0  0  0  0  0  0  0  0  0  0  0
   -5.7719   -0.1781    2.6731 C   0  0  0  0  0  0  0  0  0  0  0  0
   -5.1850   -0.8619    1.6042 C   0  0  0  0  0  0  0  0  0  0  0  0
   -3.5619   -0.4691   -4.9679 H   0  0  0  0  0  0  0  0  0  0  0  0
   -2.7189   -1.4038   -3.6879 H   0  0  0  0  0  0  0  0  0  0  0  0
   -4.5162   -1.5076   -3.8380 H   0  0  0  0  0  0  0  0  0  0  0  0
   -2.8913    1.0104   -3.0787 H   0  0  0  0  0  0  0  0  0  0  0  0
   -4.9211    1.5651   -4.3830 H   0  0  0  0  0  0  0  0  0  0  0  0
   -5.0948    2.0807   -2.6694 H   0  0  0  0  0  0  0  0  0  0  0  0
   -5.9419    0.5938   -3.2510 H   0  0  0  0  0  0  0  0  0  0  0  0
   -4.7853   -0.7736   -1.4276 H   0  0  0  0  0  0  0  0  0  0  0  0
   -4.0773    0.7521   -0.8199 H   0  0  0  0  0  0  0  0  0  0  0  0
   -1.7380    1.0923   -1.1010 H   0  0  0  0  0  0  0  0  0  0  0  0
   -1.5343    0.2042    0.4121 H   0  0  0  0  0  0  0  0  0  0  0  0
   -0.1511   -1.5253   -0.8804 H   0  0  0  0  0  0  0  0  0  0  0  0
   -0.4303    0.4310   -2.9381 H   0  0  0  0  0  0  0  0  0  0  0  0
    0.8627    0.2542    0.5000 H   0  0  0  0  0  0  0  0  0  0  0  0
    0.1750    2.2871   -0.8511 H   0  0  0  0  0  0  0  0  0  0  0  0
    1.2947    1.7903   -2.1526 H   0  0  0  0  0  0  0  0  0  0  0  0
    1.0703    2.8361    1.4488 H   0  0  0  0  0  0  0  0  0  0  0  0
    2.9326    3.9035    2.6715 H   0  0  0  0  0  0  0  0  0  0  0  0
    5.1674    4.0999    1.6167 H   0  0  0  0  0  0  0  0  0  0  0  0
    5.5399    3.2259   -0.6728 H   0  0  0  0  0  0  0  0  0  0  0  0
    3.6910    2.1581   -1.9117 H   0  0  0  0  0  0  0  0  0  0  0  0
    2.4079   -0.6624   -1.9675 H   0  0  0  0  0  0  0  0  0  0  0  0
    5.8324   -0.6457    0.9924 H   0  0  0  0  0  0  0  0  0  0  0  0
    4.9338   -2.4582    2.2249 H   0  0  0  0  0  0  0  0  0  0  0  0
    4.6657   -3.4562    0.7252 H   0  0  0  0  0  0  0  0  0  0  0  0
    7.1962   -3.0392    2.3166 H   0  0  0  0  0  0  0  0  0  0  0  0
    6.6736   -4.4556    1.3291 H   0  0  0  0  0  0  0  0  0  0  0  0
    7.4341   -1.0594   -0.6599 H   0  0  0  0  0  0  0  0  0  0  0  0
    6.4913   -2.4068   -1.4025 H   0  0  0  0  0  0  0  0  0  0  0  0
   -1.9444   -0.8084    2.6580 H   0  0  0  0  0  0  0  0  0  0  0  0
   -2.9784    0.3944    4.5372 H   0  0  0  0  0  0  0  0  0  0  0  0
   -5.0020    1.3261    5.6262 H   0  0  0  0  0  0  0  0  0  0  0  0
   -6.6111    1.1594    4.8494 H   0  0  0  0  0  0  0  0  0  0  0  0
   -6.8408   -0.0060    2.6727 H   0  0  0  0  0  0  0  0  0  0  0  0
   -5.8099   -1.2103    0.7923 H   0  0  0  0  0  0  0  0  0  0  0  0
  1  2  1  0
  2  3  1  0
  2  4  1  0
  4  5  1  0
  5  6  1  0
  6  7  1  0
  7  8  1  0
  7  9  1  0
  9 10  1  0
 10 11  1  0
 11 12  2  0
 12 13  1  0
 13 14  2  0
 14 15  1  0
 15 16  2  0
  9 17  1  0
 17 18  1  0
 18 19  2  0
 18 20  1  0
 20 21  1  0
 21 22  1  0
 22 23  1  0
 23 24  1  0
 24 25  1  0
  5 26  1  0
 26 27  2  0
 26 28  2  0
 26 29  1  0
 29 30  2  0
 30 31  1  0
 31 32  2  0
 32 33  1  0
 32 34  1  0
 34 35  2  0
 16 11  1  0
 25 21  1  0
 35 29  1  0
  1 36  1  0
  1 37  1  0
  1 38  1  0
  2 39  1  0
  3 40  1  0
  3 41  1  0
  3 42  1  0
  4 43  1  0
  4 44  1  0
  6 45  1  0
  6 46  1  0
  7 47  1  1
  8 48  1  0
  9 49  1  1
 10 50  1  0
 10 51  1  0
 12 52  1  0
 13 53  1  0
 14 54  1  0
 15 55  1  0
 16 56  1  0
 17 57  1  0
 21 58  1  1
 22 59  1  0
 22 60  1  0
 23 61  1  0
 23 62  1  0
 25 63  1  0
 25 64  1  0
 30 65  1  0
 31 66  1  0
 33 67  1  0
 33 68  1  0
 34 69  1  0
 35 70  1  0
M  END
$$$$
