
     RDKit          3D

 57 60  0  0  0  0  0  0  0  0999 V2000
   -0.5679   -0.0318    0.9818 C   0  0  2  0  0  0  0  0  0  0  0  0
   -1.3063   -0.5993    2.1873 C   0  0  0  0  0  0  0  0  0  0  0  0
   -2.7872   -0.2109    1.9530 C   0  0  1  0  0  0  0  0  0  0  0  0
   -3.3352    0.6667    3.0883 C   0  0  0  0  0  0  0  0  0  0  0  0
   -2.8572    0.4531    0.5239 C   0  0  2  0  0  0  0  0  0  0  0  0
   -2.7274    1.8572    0.6430 O   0  0  0  0  0  0  0  0  0  0  0  0
   -4.1497    0.1306   -0.2418 C   0  0  0  0  0  0  0  0  0  0  0  0
   -4.9088   -0.7401    0.1586 O   0  0  0  0  0  0  0  0  0  0  0  0
   -4.5121    0.8694   -1.5036 C   0  0  0  0  0  0  0  0  0  0  0  0
   -4.4908   -0.0039   -2.5996 O   0  0  0  0  0  0  0  0  0  0  0  0
   -1.5759   -0.1236   -0.1740 C   0  0  2  0  0  0  0  0  0  0  0  0
   -1.8568   -1.5959   -0.6390 C   0  0  0  0  0  0  0  0  0  0  0  0
   -1.0246    0.7272   -1.3553 C   0  0  0  0  0  0  0  0  0  0  0  0
    0.4319    0.3725   -1.7674 C   0  0  2  0  0  0  0  0  0  0  0  0
    0.4421   -0.7302   -2.6369 O   0  0  0  0  0  0  0  0  0  0  0  0
    1.4330    0.2559   -0.5528 C   0  0  1  0  0  0  0  0  0  0  0  0
    0.8481   -0.5721    0.6471 C   0  0  1  0  0  0  0  0  0  0  0  0
    1.7832   -0.5160    1.8908 C   0  0  2  0  0  0  0  0  0  0  0  0
    1.8606    1.1123    2.6493 Cl  0  0  0  0  0  0  0  0  0  0  0  0
    3.1993   -0.9725    1.5372 C   0  0  0  0  0  0  0  0  0  0  0  0
    3.7303   -0.1468    0.3923 C   0  0  0  0  0  0  0  0  0  0  0  0
    4.8740    0.5397    0.5469 C   0  0  0  0  0  0  0  0  0  0  0  0
    5.3805    1.4034   -0.5185 C   0  0  0  0  0  0  0  0  0  0  0  0
    6.4652    2.0250   -0.3692 O   0  0  0  0  0  0  0  0  0  0  0  0
    4.6105    1.5543   -1.7500 C   0  0  0  0  0  0  0  0  0  0  0  0
    3.4749    0.8781   -1.9265 C   0  0  0  0  0  0  0  0  0  0  0  0
    2.9246   -0.1301   -0.9162 C   0  0  2  0  0  0  0  0  0  0  0  0
    3.0733   -1.5296   -1.5593 C   0  0  0  0  0  0  0  0  0  0  0  0
   -0.4277    1.0516    1.2107 H   0  0  0  0  0  0  0  0  0  0  0  0
   -1.1956   -1.7059    2.2148 H   0  0  0  0  0  0  0  0  0  0  0  0
   -0.8986   -0.1795    3.1333 H   0  0  0  0  0  0  0  0  0  0  0  0
   -3.3746   -1.1546    1.9755 H   0  0  0  0  0  0  0  0  0  0  0  0
   -2.7275    1.5890    3.2086 H   0  0  0  0  0  0  0  0  0  0  0  0
   -3.3087    0.1032    4.0453 H   0  0  0  0  0  0  0  0  0  0  0  0
   -4.3901    0.9440    2.8791 H   0  0  0  0  0  0  0  0  0  0  0  0
   -3.5969    2.2323    0.9428 H   0  0  0  0  0  0  0  0  0  0  0  0
   -5.5191    1.3308   -1.3899 H   0  0  0  0  0  0  0  0  0  0  0  0
   -3.7957    1.6937   -1.6963 H   0  0  0  0  0  0  0  0  0  0  0  0
   -5.3325   -0.5292   -2.5633 H   0  0  0  0  0  0  0  0  0  0  0  0
   -2.3480   -1.6019   -1.6347 H   0  0  0  0  0  0  0  0  0  0  0  0
   -0.9647   -2.2346   -0.6984 H   0  0  0  0  0  0  0  0  0  0  0  0
   -2.5318   -2.1331    0.0568 H   0  0  0  0  0  0  0  0  0  0  0  0
   -1.0306    1.8036   -1.0791 H   0  0  0  0  0  0  0  0  0  0  0  0
   -1.6871    0.6291   -2.2414 H   0  0  0  0  0  0  0  0  0  0  0  0
    0.7682    1.2375   -2.3777 H   0  0  0  0  0  0  0  0  0  0  0  0
    0.4638   -1.5544   -2.0972 H   0  0  0  0  0  0  0  0  0  0  0  0
    1.5039    1.3018   -0.1724 H   0  0  0  0  0  0  0  0  0  0  0  0
    0.7813   -1.6380    0.3621 H   0  0  0  0  0  0  0  0  0  0  0  0
    1.3915   -1.2135    2.6626 H   0  0  0  0  0  0  0  0  0  0  0  0
    3.8442   -0.8949    2.4405 H   0  0  0  0  0  0  0  0  0  0  0  0
    3.1860   -2.0444    1.2473 H   0  0  0  0  0  0  0  0  0  0  0  0
    5.4269    0.4891    1.4775 H   0  0  0  0  0  0  0  0  0  0  0  0
    4.9675    2.2179   -2.5281 H   0  0  0  0  0  0  0  0  0  0  0  0
    2.9695    0.9953   -2.8765 H   0  0  0  0  0  0  0  0  0  0  0  0
    2.4982   -2.3028   -1.0119 H   0  0  0  0  0  0  0  0  0  0  0  0
    4.1415   -1.8396   -1.5573 H   0  0  0  0  0  0  0  0  0  0  0  0
    2.7556   -1.5350   -2.6223 H   0  0  0  0  0  0  0  0  0  0  0  0
  1  2  1  0
  2  3  1  0
  3  4  1  0
  3  5  1  0
  5  6  1  1
  5  7  1  0
  7  8  2  0
  7  9  1  0
  9 10  1  0
  5 11  1  0
 11 12  1  6
 11 13  1  0
 13 14  1  0
 14 15  1  0
 14 16  1  0
 16 17  1  0
 17 18  1  0
 18 19  1  0
 18 20  1  0
 20 21  1  0
 21 22  2  0
 22 23  1  0
 23 24  2  0
 23 25  1  0
 25 26  2  0
 26 27  1  0
 27 28  1  6
 11  1  1  0
 27 16  1  0
 17  1  1  0
 27 21  1  0
  1 29  1  1
  2 30  1  0
  2 31  1  0
  3 32  1  6
  4 33  1  0
  4 34  1  0
  4 35  1  0
  6 36  1  0
  9 37  1  0
  9 38  1  0
 10 39  1  0
 12 40  1  0
 12 41  1  0
 12 42  1  0
 13 43  1  0
 13 44  1  0
 14 45  1  6
 15 46  1  0
 16 47  1  1
 17 48  1  6
 18 49  1  1
 20 50  1  0
 20 51  1  0
 22 52  1  0
 25 53  1  0
 26 54  1  0
 28 55  1  0
 28 56  1  0
 28 57  1  0
M  END
$$$$
