
     RDKit          3D

 81 86  0  0  0  0  0  0  0  0999 V2000
   -4.4761   -0.5767   -2.9702 C   0  0  0  0  0  0  0  0  0  0  0  0
   -5.0434    0.0000   -1.7562 N   0  0  0  0  0  0  0  0  0  0  0  0
   -4.5558    1.0521   -1.0507 C   0  0  0  0  0  0  0  0  0  0  0  0
   -5.2817    1.3036    0.0709 N   0  0  0  0  0  4  0  0  0  0  0  0
   -4.9728    2.2734    1.1256 C   0  0  2  0  0  0  0  0  0  0  0  0
   -4.3251    3.4014    0.5726 O   0  0  0  0  0  0  0  0  0  0  0  0
   -3.1631    3.6593    1.3349 C   0  0  2  0  0  0  0  0  0  0  0  0
   -1.9199    3.3468    0.4904 C   0  0  0  0  0  0  0  0  0  0  0  0
   -1.9358    4.1405   -0.6734 O   0  0  0  0  0  0  0  0  0  0  0  0
   -0.7671    3.5375   -1.7608 P   0  0  2  0  0  5  0  0  0  0  0  0
   -0.2676    4.8061   -2.7629 O   0  0  0  0  0  0  0  0  0  0  0  0
   -1.4085    2.4609   -2.6085 O   0  0  0  0  0  0  0  0  0  0  0  0
    0.5740    2.9254   -0.9015 O   0  0  0  0  0  0  0  0  0  0  0  0
    1.5653    2.0800   -2.0002 P   0  0  2  0  0  5  0  0  0  0  0  0
    3.0109    1.6662   -1.2234 O   0  0  0  0  0  0  0  0  0  0  0  0
    1.9021    2.9560   -3.1869 O   0  0  0  0  0  0  0  0  0  0  0  0
    0.7899    0.6684   -2.5573 O   0  0  0  0  0  0  0  0  0  0  0  0
    0.4587   -0.3570   -1.2274 P   0  0  2  0  0  5  0  0  0  0  0  0
   -1.1976   -0.7000   -1.2271 O   0  0  0  0  0  0  0  0  0  0  0  0
    0.8206    0.2486    0.1144 O   0  0  0  0  0  0  0  0  0  0  0  0
    1.2895   -1.8324   -1.4295 O   0  0  0  0  0  0  0  0  0  0  0  0
    2.6722   -1.5673   -1.4559 C   0  0  0  0  0  0  0  0  0  0  0  0
    3.4416   -2.8812   -1.6303 C   0  0  1  0  0  0  0  0  0  0  0  0
    4.8163   -2.5886   -1.7861 O   0  0  0  0  0  0  0  0  0  0  0  0
    5.5329   -3.3722   -0.8593 C   0  0  2  0  0  0  0  0  0  0  0  0
    4.5953   -3.7674    0.2687 C   0  0  2  0  0  0  0  0  0  0  0  0
    4.9686   -5.0008    0.8261 O   0  0  0  0  0  0  0  0  0  0  0  0
    3.2543   -3.8248   -0.4281 C   0  0  2  0  0  0  0  0  0  0  0  0
    2.9284   -5.1300   -0.8493 O   0  0  0  0  0  0  0  0  0  0  0  0
    6.6809   -2.6228   -0.3461 N   0  0  0  0  0  0  0  0  0  0  0  0
    7.9301   -3.0973   -0.1040 C   0  0  0  0  0  0  0  0  0  0  0  0
    8.7620   -2.1720    0.4500 N   0  0  0  0  0  0  0  0  0  0  0  0
    7.9716   -1.0869    0.5545 C   0  0  0  0  0  0  0  0  0  0  0  0
    8.2584    0.1687    1.0777 C   0  0  0  0  0  0  0  0  0  0  0  0
    9.5518    0.4944    1.5868 N   0  0  0  0  0  0  0  0  0  0  0  0
    7.2504    1.0914    1.0976 N   0  0  0  0  0  0  0  0  0  0  0  0
    5.9986    0.7930    0.6215 C   0  0  0  0  0  0  0  0  0  0  0  0
    5.7278   -0.4457    0.1102 N   0  0  0  0  0  0  0  0  0  0  0  0
    6.7316   -1.3557    0.0862 C   0  0  0  0  0  0  0  0  0  0  0  0
   -3.2080    2.8134    2.6066 C   0  0  1  0  0  0  0  0  0  0  0  0
   -3.8265    3.5501    3.6329 O   0  0  0  0  0  0  0  0  0  0  0  0
   -4.0670    1.6499    2.1831 C   0  0  1  0  0  0  0  0  0  0  0  0
   -4.8042    1.1290    3.2590 O   0  0  0  0  0  0  0  0  0  0  0  0
   -6.2403    0.3559    0.0603 C   0  0  0  0  0  0  0  0  0  0  0  0
   -6.0999   -0.4295   -1.0387 C   0  0  0  0  0  0  0  0  0  0  0  0
   -6.9616   -1.5033   -1.2390 C   0  0  0  0  0  0  0  0  0  0  0  0
   -6.8566   -2.2600   -2.2393 O   0  0  0  0  0  0  0  0  0  0  0  0
   -7.9354   -1.7195   -0.3077 N   0  0  0  0  0  0  0  0  0  0  0  0
   -8.0647   -0.9145    0.7964 C   0  0  0  0  0  0  0  0  0  0  0  0
   -9.0968   -1.1802    1.7457 N   0  0  0  0  0  0  0  0  0  0  0  0
   -7.2058    0.1358    0.9894 N   0  0  0  0  0  0  0  0  0  0  0  0
   -5.2563   -0.6378   -3.7575 H   0  0  0  0  0  0  0  0  0  0  0  0
   -3.6423    0.0542   -3.3459 H   0  0  0  0  0  0  0  0  0  0  0  0
   -4.0860   -1.5931   -2.7535 H   0  0  0  0  0  0  0  0  0  0  0  0
   -3.6778    1.6125   -1.3397 H   0  0  0  0  0  0  0  0  0  0  0  0
   -5.9173    2.6276    1.5943 H   0  0  0  0  0  0  0  0  0  0  0  0
   -3.1383    4.7401    1.5990 H   0  0  0  0  0  0  0  0  0  0  0  0
   -1.0127    3.5858    1.0895 H   0  0  0  0  0  0  0  0  0  0  0  0
   -1.9237    2.2588    0.2492 H   0  0  0  0  0  0  0  0  0  0  0  0
    0.1585    5.4566   -2.1496 H   0  0  0  0  0  0  0  0  0  0  0  0
    3.3530    2.5202   -0.8571 H   0  0  0  0  0  0  0  0  0  0  0  0
   -1.6361    0.1698   -1.0551 H   0  0  0  0  0  0  0  0  0  0  0  0
    3.0052   -1.0831   -0.5094 H   0  0  0  0  0  0  0  0  0  0  0  0
    2.9240   -0.9086   -2.3177 H   0  0  0  0  0  0  0  0  0  0  0  0
    3.0789   -3.3679   -2.5633 H   0  0  0  0  0  0  0  0  0  0  0  0
    5.8955   -4.2836   -1.3881 H   0  0  0  0  0  0  0  0  0  0  0  0
    4.5768   -2.9727    1.0520 H   0  0  0  0  0  0  0  0  0  0  0  0
    4.4107   -5.1204    1.6383 H   0  0  0  0  0  0  0  0  0  0  0  0
    2.4571   -3.4764    0.2655 H   0  0  0  0  0  0  0  0  0  0  0  0
    3.6396   -5.4436   -1.4680 H   0  0  0  0  0  0  0  0  0  0  0  0
    8.2357   -4.1136   -0.3171 H   0  0  0  0  0  0  0  0  0  0  0  0
   10.3260   -0.2063    1.5765 H   0  0  0  0  0  0  0  0  0  0  0  0
    9.7377    1.4448    1.9769 H   0  0  0  0  0  0  0  0  0  0  0  0
    5.2198    1.5416    0.6561 H   0  0  0  0  0  0  0  0  0  0  0  0
   -2.1926    2.4757    2.9253 H   0  0  0  0  0  0  0  0  0  0  0  0
   -3.5650    3.1230    4.4902 H   0  0  0  0  0  0  0  0  0  0  0  0
   -3.4127    0.8635    1.7348 H   0  0  0  0  0  0  0  0  0  0  0  0
   -5.1018    0.2231    2.9841 H   0  0  0  0  0  0  0  0  0  0  0  0
   -9.2093   -0.5803    2.5928 H   0  0  0  0  0  0  0  0  0  0  0  0
   -9.7517   -1.9806    1.6018 H   0  0  0  0  0  0  0  0  0  0  0  0
   -7.2972    0.7488    1.8293 H   0  0  0  0  0  0  0  0  0  0  0  0
  1  2  1  0
  2  3  1  0
  3  4  2  0
  4  5  1  0
  5  6  1  0
  6  7  1  0
  7  8  1  0
  8  9  1  0
 10  9  1  1
 10 11  1  0
 10 12  2  0
 10 13  1  0
 14 13  1  1
 14 15  1  0
 14 16  2  0
 14 17  1  0
 18 17  1  6
 18 19  1  0
 18 20  2  0
 18 21  1  0
 21 22  1  0
 22 23  1  0
 23 24  1  0
 24 25  1  0
 25 26  1  0
 26 27  1  0
 26 28  1  0
 28 29  1  0
 25 30  1  0
 30 31  1  0
 31 32  2  0
 32 33  1  0
 33 34  2  0
 34 35  1  0
 34 36  1  0
 36 37  2  0
 37 38  1  0
 38 39  2  0
  7 40  1  0
 40 41  1  0
 40 42  1  0
 42 43  1  0
  4 44  1  0
 44 45  2  0
 45 46  1  0
 46 47  2  0
 46 48  1  0
 48 49  2  0
 49 50  1  0
 49 51  1  0
 45  2  1  0
 42  5  1  0
 51 44  1  0
 28 23  1  0
 39 30  1  0
 39 33  1  0
  1 52  1  0
  1 53  1  0
  1 54  1  0
  3 55  1  0
  5 56  1  1
  7 57  1  1
  8 58  1  0
  8 59  1  0
 11 60  1  0
 15 61  1  0
 19 62  1  0
 22 63  1  0
 22 64  1  0
 23 65  1  6
 25 66  1  6
 26 67  1  1
 27 68  1  0
 28 69  1  1
 29 70  1  0
 31 71  1  0
 35 72  1  0
 35 73  1  0
 37 74  1  0
 40 75  1  1
 41 76  1  0
 42 77  1  6
 43 78  1  0
 50 79  1  0
 50 80  1  0
 51 81  1  0
M  CHG  1   4   1
M  END
$$$$
