
     RDKit          3D

 53 56  0  0  0  0  0  0  0  0999 V2000
   -1.5472   -0.7753    0.1686 C   0  0  2  0  0  0  0  0  0  0  0  0
   -2.5728   -1.8737   -0.0896 C   0  0  0  0  0  0  0  0  0  0  0  0
   -3.9385   -1.2074    0.1513 C   0  0  0  0  0  0  0  0  0  0  0  0
   -3.6842    0.3292    0.2960 C   0  0  2  0  0  0  0  0  0  0  0  0
   -3.8121    0.7258    1.7849 C   0  0  0  0  0  0  0  0  0  0  0  0
   -4.6430    1.1018   -0.3996 O   0  0  0  0  0  0  0  0  0  0  0  0
   -2.2365    0.5192   -0.2875 C   0  0  2  0  0  0  0  0  0  0  0  0
   -2.3266    0.6470   -1.8465 C   0  0  0  0  0  0  0  0  0  0  0  0
   -1.4094    1.7022    0.2710 C   0  0  0  0  0  0  0  0  0  0  0  0
    0.0760    1.6616   -0.1915 C   0  0  1  0  0  0  0  0  0  0  0  0
    0.7592    2.7008    0.4634 O   0  0  0  0  0  0  0  0  0  0  0  0
    0.7730    0.2637    0.0489 C   0  0  1  0  0  0  0  0  0  0  0  0
   -0.1305   -0.9410   -0.4206 C   0  0  1  0  0  0  0  0  0  0  0  0
    0.4877   -2.2871    0.0155 C   0  0  0  0  0  0  0  0  0  0  0  0
    1.8932   -2.4576   -0.5578 C   0  0  0  0  0  0  0  0  0  0  0  0
    2.7418   -1.2783   -0.1538 C   0  0  0  0  0  0  0  0  0  0  0  0
    3.8071   -1.4867    0.6339 C   0  0  0  0  0  0  0  0  0  0  0  0
    4.5805   -0.3737    1.1781 C   0  0  0  0  0  0  0  0  0  0  0  0
    5.5549   -0.6163    1.9391 O   0  0  0  0  0  0  0  0  0  0  0  0
    4.2132    1.0095    0.8284 C   0  0  0  0  0  0  0  0  0  0  0  0
    5.0113    2.1656    1.2961 C   0  0  0  0  0  0  0  0  0  0  0  0
    6.0336    2.0101    2.0149 O   0  0  0  0  0  0  0  0  0  0  0  0
    3.1518    1.2277    0.0390 C   0  0  0  0  0  0  0  0  0  0  0  0
    2.2448    0.1297   -0.5218 C   0  0  2  0  0  0  0  0  0  0  0  0
    2.2975    0.2846   -2.0616 C   0  0  0  0  0  0  0  0  0  0  0  0
   -1.4113   -0.7443    1.2749 H   0  0  0  0  0  0  0  0  0  0  0  0
   -2.4229   -2.7309    0.6027 H   0  0  0  0  0  0  0  0  0  0  0  0
   -2.4975   -2.2387   -1.1373 H   0  0  0  0  0  0  0  0  0  0  0  0
   -4.6075   -1.4449   -0.7036 H   0  0  0  0  0  0  0  0  0  0  0  0
   -4.4143   -1.6385    1.0600 H   0  0  0  0  0  0  0  0  0  0  0  0
   -4.8358    0.4927    2.1491 H   0  0  0  0  0  0  0  0  0  0  0  0
   -3.0921    0.1828    2.4303 H   0  0  0  0  0  0  0  0  0  0  0  0
   -3.6658    1.8193    1.9116 H   0  0  0  0  0  0  0  0  0  0  0  0
   -4.8928    0.6496   -1.2457 H   0  0  0  0  0  0  0  0  0  0  0  0
   -2.8283    1.5989   -2.1225 H   0  0  0  0  0  0  0  0  0  0  0  0
   -1.3459    0.6641   -2.3544 H   0  0  0  0  0  0  0  0  0  0  0  0
   -2.9048   -0.1877   -2.2942 H   0  0  0  0  0  0  0  0  0  0  0  0
   -1.8711    2.6641   -0.0421 H   0  0  0  0  0  0  0  0  0  0  0  0
   -1.4112    1.6821    1.3812 H   0  0  0  0  0  0  0  0  0  0  0  0
    0.1052    1.8969   -1.2718 H   0  0  0  0  0  0  0  0  0  0  0  0
    0.7968    2.4790    1.4306 H   0  0  0  0  0  0  0  0  0  0  0  0
    0.8642    0.1629    1.1558 H   0  0  0  0  0  0  0  0  0  0  0  0
   -0.2062   -0.9732   -1.5230 H   0  0  0  0  0  0  0  0  0  0  0  0
    0.5310   -2.3477    1.1259 H   0  0  0  0  0  0  0  0  0  0  0  0
   -0.1375   -3.1301   -0.3495 H   0  0  0  0  0  0  0  0  0  0  0  0
    2.3142   -3.4200   -0.1919 H   0  0  0  0  0  0  0  0  0  0  0  0
    1.8457   -2.5295   -1.6644 H   0  0  0  0  0  0  0  0  0  0  0  0
    4.0977   -2.4936    0.9110 H   0  0  0  0  0  0  0  0  0  0  0  0
    4.7208    3.1723    1.0220 H   0  0  0  0  0  0  0  0  0  0  0  0
    2.9636    2.2443   -0.2827 H   0  0  0  0  0  0  0  0  0  0  0  0
    2.0111    1.3100   -2.3754 H   0  0  0  0  0  0  0  0  0  0  0  0
    1.6366   -0.4263   -2.5919 H   0  0  0  0  0  0  0  0  0  0  0  0
    3.3333    0.1047   -2.4242 H   0  0  0  0  0  0  0  0  0  0  0  0
  1  2  1  0
  2  3  1  0
  3  4  1  0
  4  5  1  0
  4  6  1  6
  4  7  1  0
  7  8  1  6
  7  9  1  0
  9 10  1  0
 10 11  1  0
 10 12  1  0
 12 13  1  0
 13 14  1  0
 14 15  1  0
 15 16  1  0
 16 17  2  0
 17 18  1  0
 18 19  2  0
 18 20  1  0
 20 21  1  0
 21 22  2  0
 20 23  2  0
 23 24  1  0
 24 25  1  6
  7  1  1  0
 24 12  1  0
 13  1  1  0
 24 16  1  0
  1 26  1  1
  2 27  1  0
  2 28  1  0
  3 29  1  0
  3 30  1  0
  5 31  1  0
  5 32  1  0
  5 33  1  0
  6 34  1  0
  8 35  1  0
  8 36  1  0
  8 37  1  0
  9 38  1  0
  9 39  1  0
 10 40  1  6
 11 41  1  0
 12 42  1  1
 13 43  1  6
 14 44  1  0
 14 45  1  0
 15 46  1  0
 15 47  1  0
 17 48  1  0
 21 49  1  0
 23 50  1  0
 25 51  1  0
 25 52  1  0
 25 53  1  0
M  END
$$$$
