
     RDKit          3D

 52 56  0  0  0  0  0  0  0  0999 V2000
   -1.3904    1.8212    2.4696 C   0  0  0  0  0  0  0  0  0  0  0  0
   -1.9204    1.0807    1.3289 N   0  0  0  0  0  0  0  0  0  0  0  0
   -1.4847   -0.1204    0.8840 C   0  0  0  0  0  0  0  0  0  0  0  0
   -2.1758   -0.4868   -0.2689 C   0  0  0  0  0  0  0  0  0  0  0  0
   -3.0605    0.5470   -0.5217 C   0  0  0  0  0  0  0  0  0  0  0  0
   -3.9545    0.7591   -1.5728 C   0  0  0  0  0  0  0  0  0  0  0  0
   -4.6941    1.9550   -1.5775 C   0  0  0  0  0  0  0  0  0  0  0  0
   -4.5159    2.9108   -0.5544 C   0  0  0  0  0  0  0  0  0  0  0  0
   -3.5919    2.6831    0.4807 C   0  0  0  0  0  0  0  0  0  0  0  0
   -2.8753    1.4836    0.4670 C   0  0  0  0  0  0  0  0  0  0  0  0
   -1.9641   -1.7114   -1.0665 C   0  0  0  0  0  0  0  0  0  0  0  0
   -0.7853   -2.2726   -1.3661 C   0  0  0  0  0  0  0  0  0  0  0  0
   -1.0569   -3.5069   -2.1066 C   0  0  0  0  0  0  0  0  0  0  0  0
   -0.1874   -4.2700   -2.6036 O   0  0  0  0  0  0  0  0  0  0  0  0
   -2.4535   -3.7148   -2.2447 N   0  0  0  0  0  0  0  0  0  0  0  0
   -3.0154   -2.5909   -1.5853 C   0  0  0  0  0  0  0  0  0  0  0  0
   -4.2537   -2.4236   -1.4307 O   0  0  0  0  0  0  0  0  0  0  0  0
    0.5485   -1.7142   -1.0768 C   0  0  0  0  0  0  0  0  0  0  0  0
    0.9241   -0.3797   -1.1908 C   0  0  0  0  0  0  0  0  0  0  0  0
    2.1889   -0.2066   -0.7430 N   0  0  0  0  0  0  0  0  0  0  0  0
    2.8471    1.0862   -0.5570 C   0  0  0  0  0  0  0  0  0  0  0  0
    2.5014    1.6526    0.8233 C   0  0  0  0  0  0  0  0  0  0  0  0
    3.1406    3.0260    1.0367 C   0  0  0  0  0  0  0  0  0  0  0  0
    2.8049    3.5342    2.3630 N   0  0  0  0  0  0  0  0  0  0  0  0
    2.6156   -1.4203   -0.3329 C   0  0  0  0  0  0  0  0  0  0  0  0
    1.6390   -2.3676   -0.5321 C   0  0  0  0  0  0  0  0  0  0  0  0
    1.8039   -3.6900   -0.1165 C   0  0  0  0  0  0  0  0  0  0  0  0
    3.0226   -4.0435    0.4881 C   0  0  0  0  0  0  0  0  0  0  0  0
    4.0306   -3.0759    0.6849 C   0  0  0  0  0  0  0  0  0  0  0  0
    3.8291   -1.7441    0.2820 C   0  0  0  0  0  0  0  0  0  0  0  0
   -0.6721    1.1953    3.0410 H   0  0  0  0  0  0  0  0  0  0  0  0
   -0.8658    2.7318    2.1114 H   0  0  0  0  0  0  0  0  0  0  0  0
   -2.2206    2.1156    3.1454 H   0  0  0  0  0  0  0  0  0  0  0  0
   -0.7015   -0.6968    1.3606 H   0  0  0  0  0  0  0  0  0  0  0  0
   -4.0686    0.0401   -2.3724 H   0  0  0  0  0  0  0  0  0  0  0  0
   -5.3976    2.1481   -2.3768 H   0  0  0  0  0  0  0  0  0  0  0  0
   -5.0866    3.8301   -0.5723 H   0  0  0  0  0  0  0  0  0  0  0  0
   -3.4406    3.4216    1.2570 H   0  0  0  0  0  0  0  0  0  0  0  0
   -2.9481   -4.5069   -2.7114 H   0  0  0  0  0  0  0  0  0  0  0  0
    0.2899    0.4256   -1.5404 H   0  0  0  0  0  0  0  0  0  0  0  0
    2.5055    1.7909   -1.3469 H   0  0  0  0  0  0  0  0  0  0  0  0
    3.9472    0.9731   -0.6634 H   0  0  0  0  0  0  0  0  0  0  0  0
    1.3966    1.7429    0.9141 H   0  0  0  0  0  0  0  0  0  0  0  0
    2.8616    0.9531    1.6091 H   0  0  0  0  0  0  0  0  0  0  0  0
    2.7820    3.7377    0.2593 H   0  0  0  0  0  0  0  0  0  0  0  0
    4.2458    2.9350    0.9508 H   0  0  0  0  0  0  0  0  0  0  0  0
    3.3169    4.4361    2.4967 H   0  0  0  0  0  0  0  0  0  0  0  0
    1.7851    3.7675    2.3756 H   0  0  0  0  0  0  0  0  0  0  0  0
    1.0170   -4.4224   -0.2343 H   0  0  0  0  0  0  0  0  0  0  0  0
    3.1832   -5.0617    0.8180 H   0  0  0  0  0  0  0  0  0  0  0  0
    4.9603   -3.3579    1.1617 H   0  0  0  0  0  0  0  0  0  0  0  0
    4.5936   -0.9992    0.4564 H   0  0  0  0  0  0  0  0  0  0  0  0
  1  2  1  0
  2  3  1  0
  3  4  2  0
  4  5  1  0
  5  6  2  0
  6  7  1  0
  7  8  2  0
  8  9  1  0
  9 10  2  0
  4 11  1  0
 11 12  2  0
 12 13  1  0
 13 14  2  0
 13 15  1  0
 15 16  1  0
 16 17  2  0
 12 18  1  0
 18 19  2  0
 19 20  1  0
 20 21  1  0
 21 22  1  0
 22 23  1  0
 23 24  1  0
 20 25  1  0
 25 26  2  0
 26 27  1  0
 27 28  2  0
 28 29  1  0
 29 30  2  0
 10  2  1  0
 16 11  1  0
 26 18  1  0
 10  5  1  0
 30 25  1  0
  1 31  1  0
  1 32  1  0
  1 33  1  0
  3 34  1  0
  6 35  1  0
  7 36  1  0
  8 37  1  0
  9 38  1  0
 15 39  1  0
 19 40  1  0
 21 41  1  0
 21 42  1  0
 22 43  1  0
 22 44  1  0
 23 45  1  0
 23 46  1  0
 24 47  1  0
 24 48  1  0
 27 49  1  0
 28 50  1  0
 29 51  1  0
 30 52  1  0
M  END
$$$$
