
     RDKit          3D

 49 52  0  0  0  0  0  0  0  0999 V2000
   -3.5865    1.7250    0.1436 C   0  0  1  0  0  0  0  0  0  0  0  0
   -4.7546    1.2936   -0.7607 C   0  0  0  0  0  0  0  0  0  0  0  0
   -5.2328   -0.0599   -0.4058 N   0  0  0  0  0  0  0  0  0  0  0  0
   -4.7488   -0.7472    0.8122 C   0  0  0  0  0  0  0  0  0  0  0  0
   -3.5739    0.0142    1.4613 C   0  0  2  0  0  0  0  0  0  0  0  0
   -3.8905    1.3681    1.4674 O   0  0  0  0  0  0  0  0  0  0  0  0
   -2.3260   -0.0532    0.5954 C   0  0  1  0  0  0  0  0  0  0  0  0
   -2.4082    1.0575   -0.2554 O   0  0  0  0  0  0  0  0  0  0  0  0
   -1.0785    0.0318    1.4321 C   0  0  0  0  0  0  0  0  0  0  0  0
   -0.6153    1.1596    1.7566 O   0  0  0  0  0  0  0  0  0  0  0  0
   -0.4544   -1.1690    1.9075 N   0  0  0  0  0  0  0  0  0  0  0  0
    0.7761   -1.1551    2.6947 C   0  0  0  0  0  0  0  0  0  0  0  0
    1.9480   -0.7957    1.8224 C   0  0  0  0  0  0  0  0  0  0  0  0
    2.4153   -1.7079    0.8654 C   0  0  0  0  0  0  0  0  0  0  0  0
    3.4880   -1.3730    0.0343 C   0  0  0  0  0  0  0  0  0  0  0  0
    4.1095   -0.1158    0.1420 C   0  0  0  0  0  0  0  0  0  0  0  0
    3.6333    0.7978    1.0997 C   0  0  0  0  0  0  0  0  0  0  0  0
    2.5614    0.4611    1.9310 C   0  0  0  0  0  0  0  0  0  0  0  0
    5.2477    0.2420   -0.7428 C   0  0  0  0  0  0  0  0  0  0  0  0
    5.3481    1.5341   -1.2931 C   0  0  0  0  0  0  0  0  0  0  0  0
    6.4203    1.8678   -2.1263 C   0  0  0  0  0  0  0  0  0  0  0  0
    7.4026    0.9191   -2.4188 C   0  0  0  0  0  0  0  0  0  0  0  0
    7.3146   -0.3659   -1.8790 C   0  0  0  0  0  0  0  0  0  0  0  0
    6.2442   -0.7055   -1.0459 C   0  0  0  0  0  0  0  0  0  0  0  0
   -6.2564   -0.7014   -1.1982 C   0  0  0  0  0  0  0  0  0  0  0  0
   -6.6307   -1.8705   -0.9073 O   0  0  0  0  0  0  0  0  0  0  0  0
   -6.8654   -0.0377   -2.3144 N   0  0  0  0  0  0  0  0  0  0  0  0
   -7.8058   -0.6730   -3.0540 O   0  0  0  0  0  0  0  0  0  0  0  0
   -3.4307    2.8225    0.0746 H   0  0  0  0  0  0  0  0  0  0  0  0
   -5.5890    2.0176   -0.6393 H   0  0  0  0  0  0  0  0  0  0  0  0
   -4.4134    1.3106   -1.8187 H   0  0  0  0  0  0  0  0  0  0  0  0
   -4.4313   -1.7845    0.5671 H   0  0  0  0  0  0  0  0  0  0  0  0
   -5.5828   -0.8097    1.5443 H   0  0  0  0  0  0  0  0  0  0  0  0
   -3.3999   -0.3558    2.4962 H   0  0  0  0  0  0  0  0  0  0  0  0
   -2.2899   -0.9816   -0.0163 H   0  0  0  0  0  0  0  0  0  0  0  0
   -0.8970   -2.0909    1.6921 H   0  0  0  0  0  0  0  0  0  0  0  0
    0.6696   -0.4488    3.5469 H   0  0  0  0  0  0  0  0  0  0  0  0
    0.9464   -2.1645    3.1282 H   0  0  0  0  0  0  0  0  0  0  0  0
    1.9438   -2.6772    0.7594 H   0  0  0  0  0  0  0  0  0  0  0  0
    3.8179   -2.0903   -0.7066 H   0  0  0  0  0  0  0  0  0  0  0  0
    4.1000    1.7678    1.2170 H   0  0  0  0  0  0  0  0  0  0  0  0
    2.2114    1.1816    2.6598 H   0  0  0  0  0  0  0  0  0  0  0  0
    4.5892    2.2802   -1.0940 H   0  0  0  0  0  0  0  0  0  0  0  0
    6.4875    2.8622   -2.5484 H   0  0  0  0  0  0  0  0  0  0  0  0
    8.2318    1.1796   -3.0637 H   0  0  0  0  0  0  0  0  0  0  0  0
    8.0784   -1.0992   -2.1034 H   0  0  0  0  0  0  0  0  0  0  0  0
    6.2052   -1.7024   -0.6250 H   0  0  0  0  0  0  0  0  0  0  0  0
   -6.6277    0.9480   -2.5585 H   0  0  0  0  0  0  0  0  0  0  0  0
   -7.3009   -1.1061   -3.7891 H   0  0  0  0  0  0  0  0  0  0  0  0
  1  2  1  0
  2  3  1  0
  3  4  1  0
  4  5  1  0
  5  6  1  0
  5  7  1  0
  7  8  1  0
  7  9  1  0
  9 10  2  0
  9 11  1  0
 11 12  1  0
 12 13  1  0
 13 14  2  0
 14 15  1  0
 15 16  2  0
 16 17  1  0
 17 18  2  0
 16 19  1  0
 19 20  2  0
 20 21  1  0
 21 22  2  0
 22 23  1  0
 23 24  2  0
  3 25  1  0
 25 26  2  0
 25 27  1  0
 27 28  1  0
  6  1  1  0
 18 13  1  0
 24 19  1  0
  8  1  1  0
  1 29  1  1
  2 30  1  0
  2 31  1  0
  4 32  1  0
  4 33  1  0
  5 34  1  1
  7 35  1  6
 11 36  1  0
 12 37  1  0
 12 38  1  0
 14 39  1  0
 15 40  1  0
 17 41  1  0
 18 42  1  0
 20 43  1  0
 21 44  1  0
 22 45  1  0
 23 46  1  0
 24 47  1  0
 27 48  1  0
 28 49  1  0
M  END
$$$$
