
     RDKit          3D

 62 65  0  0  0  0  0  0  0  0999 V2000
   -0.2550   -1.2607   -0.0384 C   0  0  2  0  0  0  0  0  0  0  0  0
   -1.0725   -2.4170   -0.6009 C   0  0  0  0  0  0  0  0  0  0  0  0
   -2.5354   -1.9506   -0.4760 C   0  0  0  0  0  0  0  0  0  0  0  0
   -2.4971   -0.4639    0.0013 C   0  0  2  0  0  0  0  0  0  0  0  0
   -2.6196   -0.4260    1.4335 O   0  0  0  0  0  0  0  0  0  0  0  0
   -3.7723   -0.7659    2.1561 C   0  0  0  0  0  0  0  0  0  0  0  0
   -4.8236   -1.1354    1.5640 O   0  0  0  0  0  0  0  0  0  0  0  0
   -3.7495   -0.6781    3.6465 C   0  0  0  0  0  0  0  0  0  0  0  0
   -4.1099   -2.2696    4.3592 Cl  0  0  0  0  0  0  0  0  0  0  0  0
   -4.9501    0.5121    4.2052 Cl  0  0  0  0  0  0  0  0  0  0  0  0
   -3.5739    0.4214   -0.6022 C   0  0  0  0  0  0  0  0  0  0  0  0
   -4.2867    0.0169   -1.5620 O   0  0  0  0  0  0  0  0  0  0  0  0
   -3.7492    1.7110   -0.0873 O   0  0  0  0  0  0  0  0  0  0  0  0
   -4.6387    2.6695   -0.6544 C   0  0  0  0  0  0  0  0  0  0  0  0
   -4.0500    3.2535   -1.9332 C   0  0  0  0  0  0  0  0  0  0  0  0
   -1.0600   -0.0069   -0.4032 C   0  0  2  0  0  0  0  0  0  0  0  0
   -1.0223    0.3253   -1.9358 C   0  0  0  0  0  0  0  0  0  0  0  0
   -0.4876    1.1813    0.4153 C   0  0  0  0  0  0  0  0  0  0  0  0
    1.0379    1.3828    0.1925 C   0  0  2  0  0  0  0  0  0  0  0  0
    1.2723    1.9532   -1.0670 O   0  0  0  0  0  0  0  0  0  0  0  0
    1.8617    0.0580    0.3816 C   0  0  1  0  0  0  0  0  0  0  0  0
    1.2449   -1.1592   -0.3988 C   0  0  1  0  0  0  0  0  0  0  0  0
    1.9684   -2.4706   -0.0209 C   0  0  0  0  0  0  0  0  0  0  0  0
    3.4697   -2.3796   -0.2811 C   0  0  0  0  0  0  0  0  0  0  0  0
    4.0389   -1.1931    0.4534 C   0  0  0  0  0  0  0  0  0  0  0  0
    5.0557   -1.3739    1.3117 C   0  0  0  0  0  0  0  0  0  0  0  0
    5.5885   -0.2573    2.0903 C   0  0  0  0  0  0  0  0  0  0  0  0
    6.5557   -0.4366    2.8763 O   0  0  0  0  0  0  0  0  0  0  0  0
    4.9803    1.0638    1.9630 C   0  0  0  0  0  0  0  0  0  0  0  0
    3.9743    1.2681    1.1121 C   0  0  0  0  0  0  0  0  0  0  0  0
    3.4235    0.1891    0.1772 C   0  0  2  0  0  0  0  0  0  0  0  0
    3.8237    0.6001   -1.2605 C   0  0  0  0  0  0  0  0  0  0  0  0
   -0.2912   -1.3886    1.0719 H   0  0  0  0  0  0  0  0  0  0  0  0
   -0.9007   -3.3488   -0.0189 H   0  0  0  0  0  0  0  0  0  0  0  0
   -0.8086   -2.5985   -1.6659 H   0  0  0  0  0  0  0  0  0  0  0  0
   -3.0282   -2.0650   -1.4649 H   0  0  0  0  0  0  0  0  0  0  0  0
   -3.0787   -2.5979    0.2446 H   0  0  0  0  0  0  0  0  0  0  0  0
   -2.7437   -0.3556    3.9891 H   0  0  0  0  0  0  0  0  0  0  0  0
   -5.6287    2.2071   -0.8593 H   0  0  0  0  0  0  0  0  0  0  0  0
   -4.7863    3.4907    0.0781 H   0  0  0  0  0  0  0  0  0  0  0  0
   -3.9387    2.4629   -2.7042 H   0  0  0  0  0  0  0  0  0  0  0  0
   -4.7228    4.0440   -2.3272 H   0  0  0  0  0  0  0  0  0  0  0  0
   -3.0545    3.6986   -1.7225 H   0  0  0  0  0  0  0  0  0  0  0  0
   -1.5152    1.3016   -2.1286 H   0  0  0  0  0  0  0  0  0  0  0  0
   -0.0041    0.3960   -2.3537 H   0  0  0  0  0  0  0  0  0  0  0  0
   -1.5534   -0.4393   -2.5389 H   0  0  0  0  0  0  0  0  0  0  0  0
   -0.6449    1.0105    1.5024 H   0  0  0  0  0  0  0  0  0  0  0  0
   -1.0318    2.1165    0.1606 H   0  0  0  0  0  0  0  0  0  0  0  0
    1.3657    2.1028    0.9761 H   0  0  0  0  0  0  0  0  0  0  0  0
    0.9868    2.9028   -1.0152 H   0  0  0  0  0  0  0  0  0  0  0  0
    1.7377   -0.1890    1.4631 H   0  0  0  0  0  0  0  0  0  0  0  0
    1.3624   -1.0259   -1.4907 H   0  0  0  0  0  0  0  0  0  0  0  0
    1.7989   -2.7068    1.0535 H   0  0  0  0  0  0  0  0  0  0  0  0
    1.5625   -3.3119   -0.6232 H   0  0  0  0  0  0  0  0  0  0  0  0
    3.9439   -3.3327    0.0418 H   0  0  0  0  0  0  0  0  0  0  0  0
    3.6585   -2.2714   -1.3701 H   0  0  0  0  0  0  0  0  0  0  0  0
    5.4808   -2.3590    1.4646 H   0  0  0  0  0  0  0  0  0  0  0  0
    5.3545    1.8862    2.5605 H   0  0  0  0  0  0  0  0  0  0  0  0
    3.5987    2.2793    1.0245 H   0  0  0  0  0  0  0  0  0  0  0  0
    3.6360    1.6766   -1.4519 H   0  0  0  0  0  0  0  0  0  0  0  0
    4.9142    0.4430   -1.4118 H   0  0  0  0  0  0  0  0  0  0  0  0
    3.2886    0.0103   -2.0303 H   0  0  0  0  0  0  0  0  0  0  0  0
  1  2  1  0
  2  3  1  0
  3  4  1  0
  4  5  1  1
  5  6  1  0
  6  7  2  0
  6  8  1  0
  8  9  1  0
  8 10  1  0
  4 11  1  0
 11 12  2  0
 11 13  1  0
 13 14  1  0
 14 15  1  0
  4 16  1  0
 16 17  1  6
 16 18  1  0
 18 19  1  0
 19 20  1  0
 19 21  1  0
 21 22  1  0
 22 23  1  0
 23 24  1  0
 24 25  1  0
 25 26  2  0
 26 27  1  0
 27 28  2  0
 27 29  1  0
 29 30  2  0
 30 31  1  0
 31 32  1  6
 16  1  1  0
 31 21  1  0
 22  1  1  0
 31 25  1  0
  1 33  1  1
  2 34  1  0
  2 35  1  0
  3 36  1  0
  3 37  1  0
  8 38  1  0
 14 39  1  0
 14 40  1  0
 15 41  1  0
 15 42  1  0
 15 43  1  0
 17 44  1  0
 17 45  1  0
 17 46  1  0
 18 47  1  0
 18 48  1  0
 19 49  1  1
 20 50  1  0
 21 51  1  1
 22 52  1  6
 23 53  1  0
 23 54  1  0
 24 55  1  0
 24 56  1  0
 26 57  1  0
 29 58  1  0
 30 59  1  0
 32 60  1  0
 32 61  1  0
 32 62  1  0
M  END
$$$$
