
     RDKit          3D

 50 52  0  0  0  0  0  0  0  0999 V2000
    4.3582   -0.7232    2.1006 C   0  0  0  0  0  0  0  0  0  0  0  0
    4.3698   -0.0472    0.7187 C   0  0  0  0  0  0  0  0  0  0  0  0
    4.7752   -1.0739   -0.3599 C   0  0  0  0  0  0  0  0  0  0  0  0
    5.3370    0.9758    0.7643 O   0  0  0  0  0  0  0  0  0  0  0  0
    2.9860    0.5864    0.4055 C   0  0  0  0  0  0  0  0  0  0  0  0
    1.8923   -0.3896    0.3655 N   0  0  0  0  0  0  0  0  0  0  0  0
    0.5436    0.0134    0.1032 C   0  0  0  0  0  0  0  0  0  0  0  0
    0.2410    1.3204   -0.1112 N   0  0  0  0  0  0  0  0  0  0  0  0
   -1.0401    1.6994   -0.3562 C   0  0  0  0  0  0  0  0  0  0  0  0
   -2.0207    0.7586   -0.3885 N   0  0  0  0  0  0  0  0  0  0  0  0
   -1.7263   -0.5514   -0.1871 C   0  0  0  0  0  0  0  0  0  0  0  0
   -2.7817   -1.5233   -0.1957 N   0  0  0  0  0  0  0  0  0  0  0  0
   -2.5709   -2.9454   -0.2124 C   0  0  0  0  0  0  0  0  0  0  0  0
   -3.4690   -3.7828    0.4627 C   0  0  0  0  0  0  0  0  0  0  0  0
   -3.2834   -5.1727    0.4334 C   0  0  0  0  0  0  0  0  0  0  0  0
   -2.2409   -5.6967   -0.2685 N   0  0  0  0  0  0  0  0  0  0  0  0
   -1.3670   -4.9104   -0.9500 C   0  0  0  0  0  0  0  0  0  0  0  0
   -1.5190   -3.5227   -0.9421 C   0  0  0  0  0  0  0  0  0  0  0  0
   -4.2299   -6.0795    1.1641 C   0  0  0  0  0  0  0  0  0  0  0  0
   -4.2290   -5.7650    2.5108 F   0  0  0  0  0  0  0  0  0  0  0  0
   -3.8508   -7.4021    1.0134 F   0  0  0  0  0  0  0  0  0  0  0  0
   -5.5078   -5.9203    0.6601 F   0  0  0  0  0  0  0  0  0  0  0  0
   -0.4433   -0.9174    0.0699 N   0  0  0  0  0  0  0  0  0  0  0  0
   -1.3526    3.1239   -0.5814 C   0  0  0  0  0  0  0  0  0  0  0  0
   -0.3462    4.0416   -0.5411 N   0  0  0  0  0  0  0  0  0  0  0  0
   -0.5627    5.3715   -0.7398 C   0  0  0  0  0  0  0  0  0  0  0  0
   -1.8624    5.8285   -0.9961 C   0  0  0  0  0  0  0  0  0  0  0  0
   -2.9134    4.9123   -1.0434 C   0  0  0  0  0  0  0  0  0  0  0  0
   -2.6650    3.5545   -0.8364 C   0  0  0  0  0  0  0  0  0  0  0  0
    0.5846    6.3369   -0.6839 C   0  0  0  0  0  0  0  0  0  0  0  0
    0.3616    7.2664    0.3156 F   0  0  0  0  0  0  0  0  0  0  0  0
    0.7011    6.9912   -1.8966 F   0  0  0  0  0  0  0  0  0  0  0  0
    1.7685    5.6704   -0.4193 F   0  0  0  0  0  0  0  0  0  0  0  0
    5.3789   -1.0787    2.3592 H   0  0  0  0  0  0  0  0  0  0  0  0
    4.0382    0.0001    2.8811 H   0  0  0  0  0  0  0  0  0  0  0  0
    3.6759   -1.5978    2.1271 H   0  0  0  0  0  0  0  0  0  0  0  0
    4.7276   -0.6151   -1.3707 H   0  0  0  0  0  0  0  0  0  0  0  0
    4.1138   -1.9648   -0.3472 H   0  0  0  0  0  0  0  0  0  0  0  0
    5.8172   -1.4178   -0.1848 H   0  0  0  0  0  0  0  0  0  0  0  0
    5.3729    1.4074   -0.1300 H   0  0  0  0  0  0  0  0  0  0  0  0
    2.7568    1.3536    1.1776 H   0  0  0  0  0  0  0  0  0  0  0  0
    3.0344    1.1072   -0.5760 H   0  0  0  0  0  0  0  0  0  0  0  0
    2.0703   -1.4061    0.5200 H   0  0  0  0  0  0  0  0  0  0  0  0
   -3.7616   -1.1717   -0.1017 H   0  0  0  0  0  0  0  0  0  0  0  0
   -4.2978   -3.3555    1.0146 H   0  0  0  0  0  0  0  0  0  0  0  0
   -0.5581   -5.3639   -1.5070 H   0  0  0  0  0  0  0  0  0  0  0  0
   -0.8376   -2.9131   -1.5204 H   0  0  0  0  0  0  0  0  0  0  0  0
   -2.0576    6.8815   -1.1571 H   0  0  0  0  0  0  0  0  0  0  0  0
   -3.9212    5.2544   -1.2407 H   0  0  0  0  0  0  0  0  0  0  0  0
   -3.4888    2.8530   -0.8755 H   0  0  0  0  0  0  0  0  0  0  0  0
  1  2  1  0
  2  3  1  0
  2  4  1  0
  2  5  1  0
  5  6  1  0
  6  7  1  0
  7  8  2  0
  8  9  1  0
  9 10  2  0
 10 11  1  0
 11 12  1  0
 12 13  1  0
 13 14  2  0
 14 15  1  0
 15 16  2  0
 16 17  1  0
 17 18  2  0
 15 19  1  0
 19 20  1  0
 19 21  1  0
 19 22  1  0
 11 23  2  0
  9 24  1  0
 24 25  2  0
 25 26  1  0
 26 27  2  0
 27 28  1  0
 28 29  2  0
 26 30  1  0
 30 31  1  0
 30 32  1  0
 30 33  1  0
 23  7  1  0
 29 24  1  0
 18 13  1  0
  1 34  1  0
  1 35  1  0
  1 36  1  0
  3 37  1  0
  3 38  1  0
  3 39  1  0
  4 40  1  0
  5 41  1  0
  5 42  1  0
  6 43  1  0
 12 44  1  0
 14 45  1  0
 17 46  1  0
 18 47  1  0
 27 48  1  0
 28 49  1  0
 29 50  1  0
M  END
$$$$
