
     RDKit          3D

 43 46  0  0  0  0  0  0  0  0999 V2000
   -1.7631   -0.3450    1.5358 C   0  0  1  0  0  0  0  0  0  0  0  0
   -2.5863   -1.2619    2.3310 N   0  0  0  0  0  0  0  0  0  0  0  0
   -0.2769   -0.7512    1.6634 C   0  0  0  0  0  0  0  0  0  0  0  0
    0.5381   -0.0659    0.6615 N   0  0  0  0  0  0  0  0  0  0  0  0
    0.0932    0.4811   -0.4936 C   0  0  0  0  0  0  0  0  0  0  0  0
   -1.3633    0.6217   -0.8036 C   0  0  0  0  0  0  0  0  0  0  0  0
   -2.1992   -0.3682    0.0399 C   0  0  2  0  0  0  0  0  0  0  0  0
   -3.6829   -0.0792   -0.1419 C   0  0  0  0  0  0  0  0  0  0  0  0
   -4.5210   -1.0028   -0.8015 C   0  0  0  0  0  0  0  0  0  0  0  0
   -4.0277   -2.1704   -1.2868 F   0  0  0  0  0  0  0  0  0  0  0  0
   -5.8824   -0.7274   -0.9665 C   0  0  0  0  0  0  0  0  0  0  0  0
   -6.4238    0.4656   -0.4831 C   0  0  0  0  0  0  0  0  0  0  0  0
   -7.7447    0.7244   -0.6476 F   0  0  0  0  0  0  0  0  0  0  0  0
   -5.6039    1.3909    0.1668 C   0  0  0  0  0  0  0  0  0  0  0  0
   -6.1273    2.5512    0.6344 F   0  0  0  0  0  0  0  0  0  0  0  0
   -4.2425    1.1233    0.3356 C   0  0  0  0  0  0  0  0  0  0  0  0
    1.0857    0.9583   -1.2896 N   0  0  0  0  0  0  0  0  0  0  0  0
    2.1964    0.6513   -0.5900 C   0  0  0  0  0  0  0  0  0  0  0  0
    3.5197    0.8866   -0.9536 C   0  0  0  0  0  0  0  0  0  0  0  0
    4.5334    0.4571   -0.0704 C   0  0  0  0  0  0  0  0  0  0  0  0
    4.1907   -0.2044    1.1356 C   0  0  0  0  0  0  0  0  0  0  0  0
    2.8429   -0.4264    1.4727 C   0  0  0  0  0  0  0  0  0  0  0  0
    1.8727    0.0262    0.5800 C   0  0  0  0  0  0  0  0  0  0  0  0
    6.2248    0.7087   -0.4851 S   0  0  0  0  0  6  0  0  0  0  0  0
    6.8298   -0.7041   -1.3792 C   0  0  0  0  0  0  0  0  0  0  0  0
    6.3631    1.9395   -1.3368 O   0  0  0  0  0  0  0  0  0  0  0  0
    7.0334    0.8959    0.7680 O   0  0  0  0  0  0  0  0  0  0  0  0
   -1.8716    0.6880    1.9379 H   0  0  0  0  0  0  0  0  0  0  0  0
   -3.5545   -0.8730    2.3964 H   0  0  0  0  0  0  0  0  0  0  0  0
   -2.2244   -1.2658    3.3127 H   0  0  0  0  0  0  0  0  0  0  0  0
   -0.1728   -1.8485    1.5166 H   0  0  0  0  0  0  0  0  0  0  0  0
    0.0900   -0.4960    2.6812 H   0  0  0  0  0  0  0  0  0  0  0  0
   -1.6574    1.6703   -0.5853 H   0  0  0  0  0  0  0  0  0  0  0  0
   -1.5316    0.4271   -1.8850 H   0  0  0  0  0  0  0  0  0  0  0  0
   -1.9743   -1.3890   -0.3427 H   0  0  0  0  0  0  0  0  0  0  0  0
   -6.5196   -1.4418   -1.4720 H   0  0  0  0  0  0  0  0  0  0  0  0
   -3.6259    1.8558    0.8399 H   0  0  0  0  0  0  0  0  0  0  0  0
    3.7556    1.3765   -1.8896 H   0  0  0  0  0  0  0  0  0  0  0  0
    4.9662   -0.5491    1.8074 H   0  0  0  0  0  0  0  0  0  0  0  0
    2.5749   -0.9318    2.3911 H   0  0  0  0  0  0  0  0  0  0  0  0
    6.7341   -1.6113   -0.7475 H   0  0  0  0  0  0  0  0  0  0  0  0
    7.8962   -0.5488   -1.6427 H   0  0  0  0  0  0  0  0  0  0  0  0
    6.2361   -0.8376   -2.3070 H   0  0  0  0  0  0  0  0  0  0  0  0
  1  2  1  0
  1  3  1  0
  3  4  1  0
  4  5  1  0
  5  6  1  0
  6  7  1  0
  7  8  1  0
  8  9  2  0
  9 10  1  0
  9 11  1  0
 11 12  2  0
 12 13  1  0
 12 14  1  0
 14 15  1  0
 14 16  2  0
  5 17  2  0
 17 18  1  0
 18 19  2  0
 19 20  1  0
 20 21  2  0
 21 22  1  0
 22 23  2  0
 20 24  1  0
 24 25  1  0
 24 26  2  0
 24 27  2  0
  7  1  1  0
 16  8  1  0
 23 18  1  0
 23  4  1  0
  1 28  1  1
  2 29  1  0
  2 30  1  0
  3 31  1  0
  3 32  1  0
  6 33  1  0
  6 34  1  0
  7 35  1  6
 11 36  1  0
 16 37  1  0
 19 38  1  0
 21 39  1  0
 22 40  1  0
 25 41  1  0
 25 42  1  0
 25 43  1  0
M  END
$$$$
