
     RDKit          3D

 24 23  0  0  0  0  0  0  0  0999 V2000
    0.8683    0.0097   -0.2464 C   0  0  1  0  0  0  0  0  0  0  0  0
    1.5804   -0.5006    1.0217 C   0  0  0  0  0  0  0  0  0  0  0  0
    2.7939   -1.7993    0.6172 S   0  0  0  0  0  0  0  0  0  0  0  0
   -0.3081    0.9665    0.1061 C   0  0  0  0  0  0  0  0  0  0  0  0
   -1.7192    0.3263    0.0780 C   0  0  0  0  0  0  0  0  0  0  0  0
   -2.1565   -0.0620   -1.3424 C   0  0  0  0  0  0  0  0  0  0  0  0
   -1.8597   -0.8591    1.0403 C   0  0  0  0  0  0  0  0  0  0  0  0
    1.8567    0.7150   -1.1392 C   0  0  0  0  0  0  0  0  0  0  0  0
    2.5280    1.8461   -0.6824 O   0  0  0  0  0  0  0  0  0  0  0  0
    2.0715    0.2871   -2.3051 O   0  0  0  0  0  0  0  0  0  0  0  0
    0.4841   -0.8751   -0.7957 H   0  0  0  0  0  0  0  0  0  0  0  0
    2.1004    0.3341    1.5400 H   0  0  0  0  0  0  0  0  0  0  0  0
    0.8462   -0.9344    1.7298 H   0  0  0  0  0  0  0  0  0  0  0  0
    3.1715   -1.9569    1.9642 H   0  0  0  0  0  0  0  0  0  0  0  0
   -0.1419    1.4196    1.1088 H   0  0  0  0  0  0  0  0  0  0  0  0
   -0.3278    1.8281   -0.5992 H   0  0  0  0  0  0  0  0  0  0  0  0
   -2.4290    1.1095    0.4268 H   0  0  0  0  0  0  0  0  0  0  0  0
   -1.5713   -0.9206   -1.7307 H   0  0  0  0  0  0  0  0  0  0  0  0
   -2.0340    0.7992   -2.0332 H   0  0  0  0  0  0  0  0  0  0  0  0
   -3.2298   -0.3490   -1.3403 H   0  0  0  0  0  0  0  0  0  0  0  0
   -1.2399   -1.7190    0.7102 H   0  0  0  0  0  0  0  0  0  0  0  0
   -1.5566   -0.5580    2.0654 H   0  0  0  0  0  0  0  0  0  0  0  0
   -2.9196   -1.1898    1.0802 H   0  0  0  0  0  0  0  0  0  0  0  0
    3.1925    2.3302   -1.2742 H   0  0  0  0  0  0  0  0  0  0  0  0
  1  2  1  0
  2  3  1  0
  1  4  1  0
  4  5  1  0
  5  6  1  0
  5  7  1  0
  1  8  1  0
  8  9  1  0
  8 10  2  0
  1 11  1  6
  2 12  1  0
  2 13  1  0
  3 14  1  0
  4 15  1  0
  4 16  1  0
  5 17  1  0
  6 18  1  0
  6 19  1  0
  6 20  1  0
  7 21  1  0
  7 22  1  0
  7 23  1  0
  9 24  1  0
M  END
$$$$
