
     RDKit          3D

 49 50  0  0  0  0  0  0  0  0999 V2000
    0.6580   -3.7001   -0.7434 C   0  0  0  0  0  0  0  0  0  0  0  0
    0.5642   -2.2529   -0.2488 C   0  0  1  0  0  0  0  0  0  0  0  0
    1.9160   -1.8275    0.3526 C   0  0  0  0  0  0  0  0  0  0  0  0
    1.7918   -0.5628    1.2231 C   0  0  0  0  0  0  0  0  0  0  0  0
    3.0915    0.2649    1.2408 C   0  0  0  0  0  0  0  0  0  0  0  0
    3.3304    1.0633   -0.0692 C   0  0  2  0  0  0  0  0  0  0  0  0
    4.6983    0.9957   -0.3844 O   0  0  0  0  0  0  0  0  0  0  0  0
    2.9256    2.5543    0.0449 C   0  0  0  0  0  0  0  0  0  0  0  0
    1.4569    2.8118    0.4229 C   0  0  0  0  0  0  0  0  0  0  0  0
    0.4635    2.3623   -0.6609 C   0  0  0  0  0  0  0  0  0  0  0  0
   -0.9825    2.5270   -0.1745 C   0  0  0  0  0  0  0  0  0  0  0  0
   -1.9896    1.8148   -1.0985 C   0  0  0  0  0  0  0  0  0  0  0  0
   -2.5672    0.5655   -0.4570 C   0  0  0  0  0  0  0  0  0  0  0  0
   -3.5869    0.7378    0.4960 C   0  0  0  0  0  0  0  0  0  0  0  0
   -4.2002   -0.3601    1.0974 C   0  0  0  0  0  0  0  0  0  0  0  0
   -5.2047   -0.1551    2.0408 O   0  0  0  0  0  0  0  0  0  0  0  0
   -3.8129   -1.6524    0.7399 C   0  0  0  0  0  0  0  0  0  0  0  0
   -2.7978   -1.8529   -0.2029 C   0  0  0  0  0  0  0  0  0  0  0  0
   -2.4748   -3.1505   -0.5940 O   0  0  0  0  0  0  0  0  0  0  0  0
   -2.1238   -0.7498   -0.7684 C   0  0  0  0  0  0  0  0  0  0  0  0
   -1.0299   -0.9807   -1.7418 C   0  0  0  0  0  0  0  0  0  0  0  0
   -1.2361   -0.7156   -2.9551 O   0  0  0  0  0  0  0  0  0  0  0  0
    0.2538   -1.4058   -1.3605 O   0  0  0  0  0  0  0  0  0  0  0  0
    1.5303   -3.8223   -1.4211 H   0  0  0  0  0  0  0  0  0  0  0  0
    0.7682   -4.3934    0.1176 H   0  0  0  0  0  0  0  0  0  0  0  0
   -0.2507   -3.9823   -1.3104 H   0  0  0  0  0  0  0  0  0  0  0  0
   -0.2145   -2.1873    0.5406 H   0  0  0  0  0  0  0  0  0  0  0  0
    2.6412   -1.6774   -0.4767 H   0  0  0  0  0  0  0  0  0  0  0  0
    2.3237   -2.6428    0.9911 H   0  0  0  0  0  0  0  0  0  0  0  0
    0.9395    0.0601    0.8960 H   0  0  0  0  0  0  0  0  0  0  0  0
    1.5580   -0.8769    2.2639 H   0  0  0  0  0  0  0  0  0  0  0  0
    3.9406   -0.4313    1.4222 H   0  0  0  0  0  0  0  0  0  0  0  0
    3.0749    0.9535    2.1134 H   0  0  0  0  0  0  0  0  0  0  0  0
    2.7600    0.5980   -0.9038 H   0  0  0  0  0  0  0  0  0  0  0  0
    4.7903    1.2408   -1.3426 H   0  0  0  0  0  0  0  0  0  0  0  0
    3.1365    3.0612   -0.9223 H   0  0  0  0  0  0  0  0  0  0  0  0
    3.5706    3.0395    0.8100 H   0  0  0  0  0  0  0  0  0  0  0  0
    1.3289    3.9052    0.5794 H   0  0  0  0  0  0  0  0  0  0  0  0
    1.2276    2.3254    1.3937 H   0  0  0  0  0  0  0  0  0  0  0  0
    0.6154    2.9723   -1.5781 H   0  0  0  0  0  0  0  0  0  0  0  0
    0.6331    1.3041   -0.9336 H   0  0  0  0  0  0  0  0  0  0  0  0
   -1.0799    2.1479    0.8675 H   0  0  0  0  0  0  0  0  0  0  0  0
   -1.2189    3.6135   -0.1451 H   0  0  0  0  0  0  0  0  0  0  0  0
   -2.8280    2.5150   -1.3100 H   0  0  0  0  0  0  0  0  0  0  0  0
   -1.5458    1.6057   -2.0927 H   0  0  0  0  0  0  0  0  0  0  0  0
   -3.9143    1.7347    0.7670 H   0  0  0  0  0  0  0  0  0  0  0  0
   -5.6732   -0.9313    2.4935 H   0  0  0  0  0  0  0  0  0  0  0  0
   -4.3109   -2.5045    1.1854 H   0  0  0  0  0  0  0  0  0  0  0  0
   -2.9462   -3.9583   -0.2041 H   0  0  0  0  0  0  0  0  0  0  0  0
  1  2  1  0
  2  3  1  0
  3  4  1  0
  4  5  1  0
  5  6  1  0
  6  7  1  0
  6  8  1  0
  8  9  1  0
  9 10  1  0
 10 11  1  0
 11 12  1  0
 12 13  1  0
 13 14  2  0
 14 15  1  0
 15 16  1  0
 15 17  2  0
 17 18  1  0
 18 19  1  0
 18 20  2  0
 20 21  1  0
 21 22  2  0
 21 23  1  0
 23  2  1  0
 20 13  1  0
  1 24  1  0
  1 25  1  0
  1 26  1  0
  2 27  1  1
  3 28  1  0
  3 29  1  0
  4 30  1  0
  4 31  1  0
  5 32  1  0
  5 33  1  0
  6 34  1  6
  7 35  1  0
  8 36  1  0
  8 37  1  0
  9 38  1  0
  9 39  1  0
 10 40  1  0
 10 41  1  0
 11 42  1  0
 11 43  1  0
 12 44  1  0
 12 45  1  0
 14 46  1  0
 16 47  1  0
 17 48  1  0
 19 49  1  0
M  END
$$$$
