
     RDKit          3D

 57 60  0  0  0  0  0  0  0  0999 V2000
   -4.5824   -2.1511   -1.1205 C   0  0  0  0  0  0  0  0  0  0  0  0
   -4.4018   -0.7989   -0.3861 C   0  0  0  0  0  0  0  0  0  0  0  0
   -5.4897   -0.6795    0.7054 C   0  0  0  0  0  0  0  0  0  0  0  0
   -4.5888    0.3144   -1.4468 C   0  0  0  0  0  0  0  0  0  0  0  0
   -4.1138    1.6736   -0.9480 C   0  0  0  0  0  0  0  0  0  0  0  0
   -2.5996    1.6832   -0.6217 C   0  0  0  0  0  0  0  0  0  0  0  0
   -1.7756    1.7353   -1.9287 C   0  0  0  0  0  0  0  0  0  0  0  0
   -2.3249    2.9742    0.1898 C   0  0  0  0  0  0  0  0  0  0  0  0
   -2.1871    0.4383    0.1784 C   0  0  0  0  0  0  0  0  0  0  0  0
   -0.9041    0.4022    0.7702 C   0  0  0  0  0  0  0  0  0  0  0  0
   -0.4776   -0.6961    1.5220 C   0  0  0  0  0  0  0  0  0  0  0  0
   -1.3256   -1.7911    1.6793 C   0  0  0  0  0  0  0  0  0  0  0  0
   -2.5794   -1.7993    1.0756 C   0  0  0  0  0  0  0  0  0  0  0  0
   -3.0183   -0.7190    0.2775 C   0  0  0  0  0  0  0  0  0  0  0  0
    0.8840   -0.7121    2.1065 C   0  0  0  0  0  0  0  0  0  0  0  0
    1.0605   -0.7913    3.3960 N   0  0  0  0  0  0  0  0  0  0  0  0
    0.0431   -0.8044    4.3306 O   0  0  0  0  0  0  0  0  0  0  0  0
    2.0768   -0.6303    1.2174 C   0  0  0  0  0  0  0  0  0  0  0  0
    1.9792   -0.9434   -0.1526 C   0  0  0  0  0  0  0  0  0  0  0  0
    3.0972   -0.8629   -0.9858 C   0  0  0  0  0  0  0  0  0  0  0  0
    4.3387   -0.4716   -0.4680 C   0  0  0  0  0  0  0  0  0  0  0  0
    5.4660   -0.3879   -1.3001 C   0  0  0  0  0  0  0  0  0  0  0  0
    6.7120    0.0046   -0.7779 C   0  0  0  0  0  0  0  0  0  0  0  0
    6.8150    0.3124    0.5894 C   0  0  0  0  0  0  0  0  0  0  0  0
    5.6970    0.2309    1.4235 C   0  0  0  0  0  0  0  0  0  0  0  0
    4.4547   -0.1602    0.9051 C   0  0  0  0  0  0  0  0  0  0  0  0
    3.3274   -0.2430    1.7370 C   0  0  0  0  0  0  0  0  0  0  0  0
    7.9023    0.0940   -1.6529 C   0  0  0  0  0  0  0  0  0  0  0  0
    9.1319    0.4834   -1.1279 O   0  0  0  0  0  0  0  0  0  0  0  0
    7.8153   -0.1810   -2.8804 O   0  0  0  0  0  0  0  0  0  0  0  0
   -4.6594   -3.0047   -0.4162 H   0  0  0  0  0  0  0  0  0  0  0  0
   -5.5178   -2.1474   -1.7217 H   0  0  0  0  0  0  0  0  0  0  0  0
   -3.7281   -2.3378   -1.8070 H   0  0  0  0  0  0  0  0  0  0  0  0
   -5.3554    0.2427    1.3079 H   0  0  0  0  0  0  0  0  0  0  0  0
   -5.4440   -1.5421    1.4042 H   0  0  0  0  0  0  0  0  0  0  0  0
   -6.5045   -0.6632    0.2527 H   0  0  0  0  0  0  0  0  0  0  0  0
   -4.0387    0.0598   -2.3782 H   0  0  0  0  0  0  0  0  0  0  0  0
   -5.6607    0.3945   -1.7342 H   0  0  0  0  0  0  0  0  0  0  0  0
   -4.7062    1.9559   -0.0512 H   0  0  0  0  0  0  0  0  0  0  0  0
   -4.3443    2.4384   -1.7226 H   0  0  0  0  0  0  0  0  0  0  0  0
   -2.0985    2.5860   -2.5666 H   0  0  0  0  0  0  0  0  0  0  0  0
   -1.8832    0.7957   -2.5095 H   0  0  0  0  0  0  0  0  0  0  0  0
   -0.6944    1.8673   -1.7095 H   0  0  0  0  0  0  0  0  0  0  0  0
   -1.2402    3.1747    0.3068 H   0  0  0  0  0  0  0  0  0  0  0  0
   -2.7799    2.9015    1.2015 H   0  0  0  0  0  0  0  0  0  0  0  0
   -2.7595    3.8589   -0.3248 H   0  0  0  0  0  0  0  0  0  0  0  0
   -0.2187    1.2292    0.6454 H   0  0  0  0  0  0  0  0  0  0  0  0
   -1.0095   -2.6486    2.2612 H   0  0  0  0  0  0  0  0  0  0  0  0
   -3.2059   -2.6647    1.2370 H   0  0  0  0  0  0  0  0  0  0  0  0
   -0.9284   -0.6631    4.0835 H   0  0  0  0  0  0  0  0  0  0  0  0
    1.0395   -1.2630   -0.5843 H   0  0  0  0  0  0  0  0  0  0  0  0
    2.9907   -1.1100   -2.0355 H   0  0  0  0  0  0  0  0  0  0  0  0
    5.3715   -0.6284   -2.3529 H   0  0  0  0  0  0  0  0  0  0  0  0
    7.7616    0.6172    1.0176 H   0  0  0  0  0  0  0  0  0  0  0  0
    5.8046    0.4739    2.4740 H   0  0  0  0  0  0  0  0  0  0  0  0
    3.4240    0.0058    2.7876 H   0  0  0  0  0  0  0  0  0  0  0  0
    9.9528    0.5479   -1.7180 H   0  0  0  0  0  0  0  0  0  0  0  0
  1  2  1  0
  2  3  1  0
  2  4  1  0
  4  5  1  0
  5  6  1  0
  6  7  1  0
  6  8  1  0
  6  9  1  0
  9 10  2  0
 10 11  1  0
 11 12  2  0
 12 13  1  0
 13 14  2  0
 11 15  1  0
 15 16  2  0
 16 17  1  0
 15 18  1  0
 18 19  2  0
 19 20  1  0
 20 21  2  0
 21 22  1  0
 22 23  2  0
 23 24  1  0
 24 25  2  0
 25 26  1  0
 26 27  2  0
 23 28  1  0
 28 29  1  0
 28 30  2  0
 14  2  1  0
 27 18  1  0
 14  9  1  0
 26 21  1  0
  1 31  1  0
  1 32  1  0
  1 33  1  0
  3 34  1  0
  3 35  1  0
  3 36  1  0
  4 37  1  0
  4 38  1  0
  5 39  1  0
  5 40  1  0
  7 41  1  0
  7 42  1  0
  7 43  1  0
  8 44  1  0
  8 45  1  0
  8 46  1  0
 10 47  1  0
 12 48  1  0
 13 49  1  0
 17 50  1  0
 19 51  1  0
 20 52  1  0
 22 53  1  0
 24 54  1  0
 25 55  1  0
 27 56  1  0
 29 57  1  0
M  END
$$$$
