
     RDKit          3D

 81 82  0  0  0  0  0  0  0  0999 V2000
   -3.0535   -0.8675    0.4707 C   0  0  0  0  0  0  0  0  0  0  0  0
   -4.4306   -0.5739    0.9975 C   0  0  0  0  0  0  0  0  0  0  0  0
   -5.2620   -1.8595    1.1158 C   0  0  0  0  0  0  0  0  0  0  0  0
   -6.6323   -1.6264    1.7765 C   0  0  0  0  0  0  0  0  0  0  0  0
   -7.5614   -0.6489    1.0274 C   0  0  0  0  0  0  0  0  0  0  0  0
   -7.8198   -0.9982   -0.4492 C   0  0  0  0  0  0  0  0  0  0  0  0
   -8.4906   -2.3708   -0.6275 C   0  0  0  0  0  0  0  0  0  0  0  0
   -8.9409   -2.6208   -2.0748 C   0  0  0  0  0  0  0  0  0  0  0  0
   -7.7652   -2.8205   -3.0314 C   0  0  0  0  0  0  0  0  0  0  0  0
   -2.8566   -1.2388   -0.8036 C   0  0  0  0  0  0  0  0  0  0  0  0
   -1.4779   -1.4891   -1.3529 C   0  0  0  0  0  0  0  0  0  0  0  0
   -1.1088   -0.4683   -2.4397 C   0  0  0  0  0  0  0  0  0  0  0  0
   -1.0636    0.9927   -1.9481 C   0  0  0  0  0  0  0  0  0  0  0  0
   -0.0476    1.2701   -0.8226 C   0  0  0  0  0  0  0  0  0  0  0  0
    1.4103    0.8965   -1.1532 C   0  0  0  0  0  0  0  0  0  0  0  0
    1.9897    1.5858   -2.4055 C   0  0  0  0  0  0  0  0  0  0  0  0
    1.9929    3.1219   -2.3411 C   0  0  0  0  0  0  0  0  0  0  0  0
    2.7746    3.6272   -1.1685 C   0  0  0  0  0  0  0  0  0  0  0  0
    2.1926    4.2848   -0.2631 O   0  0  0  0  0  0  0  0  0  0  0  0
    4.1419    3.3444   -1.0818 O   0  0  0  0  0  0  0  0  0  0  0  0
    4.9227    3.5992    0.0839 C   0  0  0  0  0  0  0  0  0  0  0  0
    4.5833    2.5889    1.1880 C   0  0  1  0  0  0  0  0  0  0  0  0
    4.7849    1.2759    0.7187 O   0  0  0  0  0  0  0  0  0  0  0  0
    5.2079    0.4926    1.8182 C   0  0  1  0  0  0  0  0  0  0  0  0
    6.4206   -0.2722    1.4564 N   0  0  0  0  0  0  0  0  0  0  0  0
    7.4112    0.3262    0.7241 C   0  0  0  0  0  0  0  0  0  0  0  0
    8.5714   -0.3701    0.3930 C   0  0  0  0  0  0  0  0  0  0  0  0
    8.7090   -1.6828    0.8335 C   0  0  0  0  0  0  0  0  0  0  0  0
    9.7738   -2.3576    0.5419 N   0  0  0  0  0  0  0  0  0  0  0  0
    7.7229   -2.2477    1.5753 N   0  0  0  0  0  0  0  0  0  0  0  0
    6.5927   -1.5617    1.8945 C   0  0  0  0  0  0  0  0  0  0  0  0
    5.6211   -2.1842    2.6759 O   0  0  0  0  0  0  0  0  0  0  0  0
    5.4425    1.4082    3.0321 C   0  0  1  0  0  0  0  0  0  0  0  0
    6.6584    1.1538    3.6880 O   0  0  0  0  0  0  0  0  0  0  0  0
    5.4449    2.7863    2.4253 C   0  0  2  0  0  0  0  0  0  0  0  0
    4.8699    3.7322    3.2881 O   0  0  0  0  0  0  0  0  0  0  0  0
   -2.2060   -0.7398    1.1383 H   0  0  0  0  0  0  0  0  0  0  0  0
   -4.9259    0.1538    0.3202 H   0  0  0  0  0  0  0  0  0  0  0  0
   -4.3351   -0.1050    2.0007 H   0  0  0  0  0  0  0  0  0  0  0  0
   -5.3948   -2.3282    0.1181 H   0  0  0  0  0  0  0  0  0  0  0  0
   -4.7026   -2.5886    1.7426 H   0  0  0  0  0  0  0  0  0  0  0  0
   -6.4715   -1.2369    2.8054 H   0  0  0  0  0  0  0  0  0  0  0  0
   -7.1448   -2.6055    1.8890 H   0  0  0  0  0  0  0  0  0  0  0  0
   -7.1376    0.3763    1.0831 H   0  0  0  0  0  0  0  0  0  0  0  0
   -8.5355   -0.6134    1.5623 H   0  0  0  0  0  0  0  0  0  0  0  0
   -6.8678   -0.9535   -1.0170 H   0  0  0  0  0  0  0  0  0  0  0  0
   -8.4866   -0.2142   -0.8699 H   0  0  0  0  0  0  0  0  0  0  0  0
   -9.3882   -2.4209    0.0267 H   0  0  0  0  0  0  0  0  0  0  0  0
   -7.7980   -3.1817   -0.3160 H   0  0  0  0  0  0  0  0  0  0  0  0
   -9.5655   -3.5401   -2.0941 H   0  0  0  0  0  0  0  0  0  0  0  0
   -9.5727   -1.7784   -2.4312 H   0  0  0  0  0  0  0  0  0  0  0  0
   -7.0944   -3.6247   -2.6611 H   0  0  0  0  0  0  0  0  0  0  0  0
   -7.1871   -1.8803   -3.1459 H   0  0  0  0  0  0  0  0  0  0  0  0
   -8.1492   -3.1135   -4.0313 H   0  0  0  0  0  0  0  0  0  0  0  0
   -3.7050   -1.3341   -1.4763 H   0  0  0  0  0  0  0  0  0  0  0  0
   -0.7099   -1.4952   -0.5501 H   0  0  0  0  0  0  0  0  0  0  0  0
   -1.4707   -2.5029   -1.8067 H   0  0  0  0  0  0  0  0  0  0  0  0
   -1.8549   -0.5371   -3.2616 H   0  0  0  0  0  0  0  0  0  0  0  0
   -0.1298   -0.7473   -2.8826 H   0  0  0  0  0  0  0  0  0  0  0  0
   -2.0732    1.2869   -1.5888 H   0  0  0  0  0  0  0  0  0  0  0  0
   -0.8425    1.6524   -2.8135 H   0  0  0  0  0  0  0  0  0  0  0  0
   -0.0987    2.3472   -0.5573 H   0  0  0  0  0  0  0  0  0  0  0  0
   -0.3538    0.7221    0.0927 H   0  0  0  0  0  0  0  0  0  0  0  0
    1.4897   -0.2035   -1.2819 H   0  0  0  0  0  0  0  0  0  0  0  0
    2.0427    1.1459   -0.2744 H   0  0  0  0  0  0  0  0  0  0  0  0
    1.4280    1.2625   -3.3068 H   0  0  0  0  0  0  0  0  0  0  0  0
    3.0349    1.2323   -2.5444 H   0  0  0  0  0  0  0  0  0  0  0  0
    0.9523    3.5093   -2.3111 H   0  0  0  0  0  0  0  0  0  0  0  0
    2.4604    3.5161   -3.2684 H   0  0  0  0  0  0  0  0  0  0  0  0
    5.9949    3.5047   -0.1905 H   0  0  0  0  0  0  0  0  0  0  0  0
    4.7492    4.6381    0.4406 H   0  0  0  0  0  0  0  0  0  0  0  0
    3.5097    2.6990    1.4635 H   0  0  0  0  0  0  0  0  0  0  0  0
    4.3729   -0.2026    2.0567 H   0  0  0  0  0  0  0  0  0  0  0  0
    7.3123    1.3516    0.3912 H   0  0  0  0  0  0  0  0  0  0  0  0
    9.3475    0.1085   -0.1923 H   0  0  0  0  0  0  0  0  0  0  0  0
    9.9007   -3.3438    0.8633 H   0  0  0  0  0  0  0  0  0  0  0  0
    5.7464   -3.1343    3.0040 H   0  0  0  0  0  0  0  0  0  0  0  0
    4.5885    1.3126    3.7454 H   0  0  0  0  0  0  0  0  0  0  0  0
    6.5150    0.3403    4.2384 H   0  0  0  0  0  0  0  0  0  0  0  0
    6.4814    3.0871    2.1393 H   0  0  0  0  0  0  0  0  0  0  0  0
    5.5465    3.9179    3.9903 H   0  0  0  0  0  0  0  0  0  0  0  0
  1  2  1  0
  2  3  1  0
  3  4  1  0
  4  5  1  0
  5  6  1  0
  6  7  1  0
  7  8  1  0
  8  9  1  0
  1 10  2  0
 10 11  1  0
 11 12  1  0
 12 13  1  0
 13 14  1  0
 14 15  1  0
 15 16  1  0
 16 17  1  0
 17 18  1  0
 18 19  2  0
 18 20  1  0
 20 21  1  0
 21 22  1  0
 22 23  1  0
 23 24  1  0
 24 25  1  0
 25 26  1  0
 26 27  2  0
 27 28  1  0
 28 29  2  3
 28 30  1  0
 30 31  2  0
 31 32  1  0
 24 33  1  0
 33 34  1  0
 33 35  1  0
 35 36  1  0
 35 22  1  0
 31 25  1  0
  1 37  1  0
  2 38  1  0
  2 39  1  0
  3 40  1  0
  3 41  1  0
  4 42  1  0
  4 43  1  0
  5 44  1  0
  5 45  1  0
  6 46  1  0
  6 47  1  0
  7 48  1  0
  7 49  1  0
  8 50  1  0
  8 51  1  0
  9 52  1  0
  9 53  1  0
  9 54  1  0
 10 55  1  0
 11 56  1  0
 11 57  1  0
 12 58  1  0
 12 59  1  0
 13 60  1  0
 13 61  1  0
 14 62  1  0
 14 63  1  0
 15 64  1  0
 15 65  1  0
 16 66  1  0
 16 67  1  0
 17 68  1  0
 17 69  1  0
 21 70  1  0
 21 71  1  0
 22 72  1  1
 24 73  1  1
 26 74  1  0
 27 75  1  0
 29 76  1  0
 32 77  1  0
 33 78  1  1
 34 79  1  0
 35 80  1  6
 36 81  1  0
M  END
$$$$
