
     RDKit          3D

 97105  0  0  0  0  0  0  0  0999 V2000
   -2.2139   -1.2579    0.7283 C   0  0  2  0  0  0  0  0  0  0  0  0
   -0.6892   -1.4444    0.9760 C   0  0  2  0  0  0  0  0  0  0  0  0
    0.5315   -0.0744    0.7312 S   0  0  0  0  0  0  0  0  0  0  0  0
   -0.0685    0.9226   -0.6911 C   0  0  0  0  0  0  0  0  0  0  0  0
    0.8408    0.9092   -1.9504 C   0  0  1  0  0  0  0  0  0  0  0  0
    0.1025    1.5153   -3.0868 N   0  0  0  0  0  0  0  0  0  0  0  0
   -0.0874    2.9646   -2.9770 C   0  0  0  0  0  0  0  0  0  0  0  0
    1.2529    3.6801   -3.0440 C   0  0  0  0  0  0  0  0  0  0  0  0
    2.2528    3.0660   -2.1056 C   0  0  0  0  0  0  0  0  0  0  0  0
    2.1220    1.7321   -1.6399 C   0  0  0  0  0  0  0  0  0  0  0  0
    3.1084    1.2443   -0.7503 C   0  0  0  0  0  0  0  0  0  0  0  0
    4.2107    2.0315   -0.3676 C   0  0  0  0  0  0  0  0  0  0  0  0
    5.1884    1.5624    0.5248 O   0  0  0  0  0  0  0  0  0  0  0  0
    5.1653    0.2858    1.1535 C   0  0  0  0  0  0  0  0  0  0  0  0
    4.3386    3.3276   -0.8824 C   0  0  0  0  0  0  0  0  0  0  0  0
    5.4230    4.1361   -0.5410 O   0  0  0  0  0  0  0  0  0  0  0  0
    3.3698    3.8326   -1.7461 C   0  0  0  0  0  0  0  0  0  0  0  0
    1.1411   -0.5373   -2.3635 C   0  0  0  0  0  0  0  0  0  0  0  0
    2.3231   -0.9703   -2.3238 O   0  0  0  0  0  0  0  0  0  0  0  0
    0.1742   -1.3943   -2.9207 O   0  0  0  0  0  0  0  0  0  0  0  0
   -1.2547   -1.2850   -2.8545 C   0  0  0  0  0  0  0  0  0  0  0  0
   -1.8652   -2.0579   -1.6531 C   0  0  2  0  0  0  0  0  0  0  0  0
   -2.5332   -1.1010   -0.7111 N   0  0  0  0  0  0  0  0  0  0  0  0
   -3.9938   -0.9761   -0.9740 C   0  0  1  0  0  0  0  0  0  0  0  0
   -4.6890   -2.2043   -0.8995 O   0  0  0  0  0  0  0  0  0  0  0  0
   -4.6665    0.0658   -0.0431 C   0  0  2  0  0  0  0  0  0  0  0  0
   -4.2268    1.5116   -0.3892 C   0  0  0  0  0  0  0  0  0  0  0  0
   -3.0498    2.0132    0.4251 C   0  0  0  0  0  0  0  0  0  0  0  0
   -2.6081    3.3262    0.2183 C   0  0  0  0  0  0  0  0  0  0  0  0
   -1.5904    3.8753    1.0081 C   0  0  0  0  0  0  0  0  0  0  0  0
   -1.0696    5.2511    0.7006 C   0  0  0  0  0  0  0  0  0  0  0  0
   -1.0065    3.1001    2.0256 C   0  0  0  0  0  0  0  0  0  0  0  0
    0.0584    3.6184    2.7657 O   0  0  0  0  0  0  0  0  0  0  0  0
    1.4062    3.3127    2.4262 C   0  0  0  0  0  0  0  0  0  0  0  0
   -1.4741    1.7958    2.2772 C   0  0  0  0  0  0  0  0  0  0  0  0
   -0.9581    1.0546    3.3429 O   0  0  0  0  0  0  0  0  0  0  0  0
   -2.4543    1.2245    1.4378 C   0  0  0  0  0  0  0  0  0  0  0  0
   -2.9342   -0.1997    1.6376 C   0  0  1  0  0  0  0  0  0  0  0  0
   -4.3859   -0.1879    1.3838 N   0  0  0  0  0  0  0  0  0  0  0  0
   -5.1374   -1.2981    1.9928 C   0  0  0  0  0  0  0  0  0  0  0  0
   -0.8363   -2.9726   -1.0065 C   0  0  0  0  0  0  0  0  0  0  0  0
   -0.4003   -4.1231   -1.6683 C   0  0  0  0  0  0  0  0  0  0  0  0
   -0.8374   -4.6335   -2.8771 O   0  0  0  0  0  0  0  0  0  0  0  0
   -0.0921   -5.8249   -3.1549 C   0  0  0  0  0  0  0  0  0  0  0  0
    0.7988   -5.9713   -2.0424 O   0  0  0  0  0  0  0  0  0  0  0  0
    0.5791   -4.9188   -1.1725 C   0  0  0  0  0  0  0  0  0  0  0  0
    1.2241   -4.6421    0.0323 C   0  0  0  0  0  0  0  0  0  0  0  0
    2.2975   -5.5607    0.5430 C   0  0  0  0  0  0  0  0  0  0  0  0
    0.8409   -3.4625    0.7232 C   0  0  0  0  0  0  0  0  0  0  0  0
    1.4804   -3.0877    1.9110 O   0  0  0  0  0  0  0  0  0  0  0  0
    2.8311   -2.7311    1.9672 C   0  0  0  0  0  0  0  0  0  0  0  0
    3.4457   -2.4042    3.2846 C   0  0  0  0  0  0  0  0  0  0  0  0
    3.5130   -2.6212    0.9120 O   0  0  0  0  0  0  0  0  0  0  0  0
   -0.2157   -2.6512    0.2190 C   0  0  0  0  0  0  0  0  0  0  0  0
   -2.6369   -2.2314    1.0565 H   0  0  0  0  0  0  0  0  0  0  0  0
   -0.6084   -1.6847    2.0588 H   0  0  0  0  0  0  0  0  0  0  0  0
   -0.0864    1.9581   -0.3063 H   0  0  0  0  0  0  0  0  0  0  0  0
   -1.1044    0.7145   -0.9541 H   0  0  0  0  0  0  0  0  0  0  0  0
    0.6103    1.3236   -3.9847 H   0  0  0  0  0  0  0  0  0  0  0  0
   -0.7225    3.3100   -3.8210 H   0  0  0  0  0  0  0  0  0  0  0  0
   -0.6274    3.2312   -2.0459 H   0  0  0  0  0  0  0  0  0  0  0  0
    1.0955    4.7522   -2.7933 H   0  0  0  0  0  0  0  0  0  0  0  0
    1.6530    3.6203   -4.0793 H   0  0  0  0  0  0  0  0  0  0  0  0
    3.0158    0.2521   -0.3407 H   0  0  0  0  0  0  0  0  0  0  0  0
    6.0446    0.1948    1.8232 H   0  0  0  0  0  0  0  0  0  0  0  0
    4.2429    0.1784    1.7623 H   0  0  0  0  0  0  0  0  0  0  0  0
    5.2185   -0.5159    0.3875 H   0  0  0  0  0  0  0  0  0  0  0  0
    6.1563    3.8223    0.0832 H   0  0  0  0  0  0  0  0  0  0  0  0
    3.4832    4.8393   -2.1310 H   0  0  0  0  0  0  0  0  0  0  0  0
   -1.6480   -1.7446   -3.7868 H   0  0  0  0  0  0  0  0  0  0  0  0
   -1.6050   -0.2378   -2.8988 H   0  0  0  0  0  0  0  0  0  0  0  0
   -2.6240   -2.7462   -2.0887 H   0  0  0  0  0  0  0  0  0  0  0  0
   -4.1203   -0.6157   -2.0185 H   0  0  0  0  0  0  0  0  0  0  0  0
   -4.1481   -2.8744   -0.4129 H   0  0  0  0  0  0  0  0  0  0  0  0
   -5.7648    0.0141   -0.2214 H   0  0  0  0  0  0  0  0  0  0  0  0
   -5.0843    2.1887   -0.1813 H   0  0  0  0  0  0  0  0  0  0  0  0
   -3.9957    1.6124   -1.4719 H   0  0  0  0  0  0  0  0  0  0  0  0
   -3.0596    3.9214   -0.5670 H   0  0  0  0  0  0  0  0  0  0  0  0
   -0.8413    5.7993    1.6389 H   0  0  0  0  0  0  0  0  0  0  0  0
   -1.8176    5.8458    0.1342 H   0  0  0  0  0  0  0  0  0  0  0  0
   -0.1447    5.1667    0.0918 H   0  0  0  0  0  0  0  0  0  0  0  0
    1.5894    2.2221    2.5194 H   0  0  0  0  0  0  0  0  0  0  0  0
    1.6188    3.6328    1.3838 H   0  0  0  0  0  0  0  0  0  0  0  0
    2.0878    3.8518    3.1151 H   0  0  0  0  0  0  0  0  0  0  0  0
   -0.2746    1.4325    3.9871 H   0  0  0  0  0  0  0  0  0  0  0  0
   -2.7659   -0.4884    2.6991 H   0  0  0  0  0  0  0  0  0  0  0  0
   -6.2139   -1.2260    1.7295 H   0  0  0  0  0  0  0  0  0  0  0  0
   -4.7587   -2.2894    1.6856 H   0  0  0  0  0  0  0  0  0  0  0  0
   -5.0643   -1.2286    3.0985 H   0  0  0  0  0  0  0  0  0  0  0  0
    0.4856   -5.7047   -4.0953 H   0  0  0  0  0  0  0  0  0  0  0  0
   -0.7745   -6.6982   -3.2172 H   0  0  0  0  0  0  0  0  0  0  0  0
    2.1072   -6.6048    0.2154 H   0  0  0  0  0  0  0  0  0  0  0  0
    3.2833   -5.2375    0.1494 H   0  0  0  0  0  0  0  0  0  0  0  0
    2.3237   -5.5581    1.6528 H   0  0  0  0  0  0  0  0  0  0  0  0
    3.0998   -3.1314    4.0483 H   0  0  0  0  0  0  0  0  0  0  0  0
    4.5535   -2.4508    3.2185 H   0  0  0  0  0  0  0  0  0  0  0  0
    3.1404   -1.3818    3.5895 H   0  0  0  0  0  0  0  0  0  0  0  0
  1  2  1  0
  2  3  1  0
  3  4  1  0
  4  5  1  0
  5  6  1  6
  6  7  1  0
  7  8  1  0
  8  9  1  0
  9 10  2  0
 10 11  1  0
 11 12  2  0
 12 13  1  0
 13 14  1  0
 12 15  1  0
 15 16  1  0
 15 17  2  0
  5 18  1  0
 18 19  2  0
 18 20  1  0
 20 21  1  0
 21 22  1  0
 22 23  1  0
 23 24  1  0
 24 25  1  0
 24 26  1  0
 26 27  1  0
 27 28  1  0
 28 29  2  0
 29 30  1  0
 30 31  1  0
 30 32  2  0
 32 33  1  0
 33 34  1  0
 32 35  1  0
 35 36  1  0
 35 37  2  0
 37 38  1  0
 38 39  1  0
 39 40  1  0
 22 41  1  0
 41 42  2  0
 42 43  1  0
 43 44  1  0
 44 45  1  0
 45 46  1  0
 46 47  2  0
 47 48  1  0
 47 49  1  0
 49 50  1  0
 50 51  1  0
 51 52  1  0
 51 53  2  0
 49 54  2  0
 23  1  1  0
 39 26  1  0
 54 41  1  0
 38  1  1  0
 46 42  1  0
 54  2  1  0
 10  5  1  0
 37 28  1  0
 17  9  1  0
  1 55  1  1
  2 56  1  1
  4 57  1  0
  4 58  1  0
  6 59  1  0
  7 60  1  0
  7 61  1  0
  8 62  1  0
  8 63  1  0
 11 64  1  0
 14 65  1  0
 14 66  1  0
 14 67  1  0
 16 68  1  0
 17 69  1  0
 21 70  1  0
 21 71  1  0
 22 72  1  6
 24 73  1  6
 25 74  1  0
 26 75  1  1
 27 76  1  0
 27 77  1  0
 29 78  1  0
 31 79  1  0
 31 80  1  0
 31 81  1  0
 34 82  1  0
 34 83  1  0
 34 84  1  0
 36 85  1  0
 38 86  1  1
 40 87  1  0
 40 88  1  0
 40 89  1  0
 44 90  1  0
 44 91  1  0
 48 92  1  0
 48 93  1  0
 48 94  1  0
 52 95  1  0
 52 96  1  0
 52 97  1  0
M  END
$$$$
