
     RDKit          3D

 28 30  0  0  0  0  0  0  0  0999 V2000
    4.2984    2.5527   -0.4765 F   0  0  0  0  0  0  0  0  0  0  0  0
    3.3402    1.6363   -0.1932 C   0  0  0  0  0  0  0  0  0  0  0  0
    2.3545    1.3405   -1.1386 C   0  0  0  0  0  0  0  0  0  0  0  0
    1.3663    0.3948   -0.8489 C   0  0  0  0  0  0  0  0  0  0  0  0
    1.3492   -0.2549    0.3979 C   0  0  0  0  0  0  0  0  0  0  0  0
    2.3550    0.0358    1.3353 C   0  0  0  0  0  0  0  0  0  0  0  0
    3.3420    0.9818    1.0415 C   0  0  0  0  0  0  0  0  0  0  0  0
    0.3167   -1.2667    0.7101 C   0  0  0  0  0  0  0  0  0  0  0  0
    0.5351   -2.4772    1.3382 C   0  0  0  0  0  0  0  0  0  0  0  0
   -0.6154   -3.1716    1.3404 N   0  0  0  0  0  0  0  0  0  0  0  0
   -1.5673   -2.4656    0.7526 N   0  0  0  0  0  0  0  0  0  0  0  0
   -1.0317   -1.2917    0.3602 C   0  0  0  0  0  0  0  0  0  0  0  0
   -1.8301   -0.2187   -0.2696 C   0  0  0  0  0  0  0  0  0  0  0  0
   -1.6105    1.1316    0.0469 C   0  0  0  0  0  0  0  0  0  0  0  0
   -2.3961    2.1177   -0.5551 C   0  0  0  0  0  0  0  0  0  0  0  0
   -2.1877    3.4243   -0.2623 F   0  0  0  0  0  0  0  0  0  0  0  0
   -3.3770    1.7689   -1.4290 N   0  0  0  0  0  0  0  0  0  0  0  0
   -3.6250    0.4691   -1.7393 C   0  0  0  0  0  0  0  0  0  0  0  0
   -2.8623   -0.5480   -1.1603 C   0  0  0  0  0  0  0  0  0  0  0  0
    2.3586    1.8391   -2.0993 H   0  0  0  0  0  0  0  0  0  0  0  0
    0.6254    0.1617   -1.6029 H   0  0  0  0  0  0  0  0  0  0  0  0
    2.3682   -0.4588    2.2988 H   0  0  0  0  0  0  0  0  0  0  0  0
    4.1080    1.2068    1.7724 H   0  0  0  0  0  0  0  0  0  0  0  0
    1.4738   -2.8440    1.7327 H   0  0  0  0  0  0  0  0  0  0  0  0
   -0.7533   -4.1278    1.7353 H   0  0  0  0  0  0  0  0  0  0  0  0
   -0.8516    1.4202    0.7629 H   0  0  0  0  0  0  0  0  0  0  0  0
   -4.4159    0.2243   -2.4356 H   0  0  0  0  0  0  0  0  0  0  0  0
   -3.0675   -1.5807   -1.4147 H   0  0  0  0  0  0  0  0  0  0  0  0
  1  2  1  0
  2  3  2  0
  3  4  1  0
  4  5  2  0
  5  6  1  0
  6  7  2  0
  5  8  1  0
  8  9  2  0
  9 10  1  0
 10 11  1  0
 11 12  2  0
 12 13  1  0
 13 14  2  0
 14 15  1  0
 15 16  1  0
 15 17  2  0
 17 18  1  0
 18 19  2  0
  7  2  1  0
 12  8  1  0
 19 13  1  0
  3 20  1  0
  4 21  1  0
  6 22  1  0
  7 23  1  0
  9 24  1  0
 10 25  1  0
 14 26  1  0
 18 27  1  0
 19 28  1  0
M  END
$$$$
