
     RDKit          3D

 30 32  0  0  0  0  0  0  0  0999 V2000
    4.8617   -1.0350   -1.4475 N   0  0  0  0  0  0  0  0  0  0  0  0
    4.6004   -0.5404   -0.1314 C   0  0  0  0  0  0  0  0  0  0  0  0
    5.5549   -0.5633    0.7466 N   0  0  0  0  0  0  0  0  0  0  0  0
    3.2540   -0.0227    0.2182 C   0  0  0  0  0  0  0  0  0  0  0  0
    2.0990   -0.6283   -0.3315 C   0  0  0  0  0  0  0  0  0  0  0  0
    0.8576   -0.1047    0.0197 C   0  0  0  0  0  0  0  0  0  0  0  0
    0.7276    0.9507    0.8674 C   0  0  0  0  0  0  0  0  0  0  0  0
    1.8325    1.5784    1.4321 C   0  0  0  0  0  0  0  0  0  0  0  0
    3.1082    1.0855    1.0990 C   0  0  0  0  0  0  0  0  0  0  0  0
   -0.5709    1.2400    1.0606 N   0  0  0  0  0  0  0  0  0  0  0  0
   -1.2071    0.3217    0.2839 C   0  0  0  0  0  0  0  0  0  0  0  0
   -0.3567   -0.5226   -0.3578 N   0  0  0  0  0  0  0  0  0  0  0  0
   -2.6810    0.2357    0.2202 C   0  0  0  0  0  0  0  0  0  0  0  0
   -3.3659   -0.2890   -0.8965 C   0  0  0  0  0  0  0  0  0  0  0  0
   -2.6766   -0.7204   -2.0286 O   0  0  0  0  0  0  0  0  0  0  0  0
   -4.7658   -0.3459   -0.8701 C   0  0  0  0  0  0  0  0  0  0  0  0
   -5.4654    0.1328    0.2370 C   0  0  0  0  0  0  0  0  0  0  0  0
   -4.7567    0.6698    1.3105 C   0  0  0  0  0  0  0  0  0  0  0  0
   -3.3988    0.7096    1.2771 N   0  0  0  0  0  0  0  0  0  0  0  0
    4.1501   -0.9550   -2.2071 H   0  0  0  0  0  0  0  0  0  0  0  0
    5.7958   -1.4382   -1.6831 H   0  0  0  0  0  0  0  0  0  0  0  0
    5.4289   -0.2389    1.7310 H   0  0  0  0  0  0  0  0  0  0  0  0
    2.1624   -1.4843   -0.9912 H   0  0  0  0  0  0  0  0  0  0  0  0
    1.7164    2.4192    2.1036 H   0  0  0  0  0  0  0  0  0  0  0  0
    3.9780    1.5786    1.5136 H   0  0  0  0  0  0  0  0  0  0  0  0
   -0.5765   -1.3451   -0.9611 H   0  0  0  0  0  0  0  0  0  0  0  0
   -3.1615   -1.0899   -2.8380 H   0  0  0  0  0  0  0  0  0  0  0  0
   -5.3123   -0.7486   -1.7134 H   0  0  0  0  0  0  0  0  0  0  0  0
   -6.5469    0.0964    0.2587 H   0  0  0  0  0  0  0  0  0  0  0  0
   -5.2854    1.0538    2.1726 H   0  0  0  0  0  0  0  0  0  0  0  0
  1  2  1  0
  2  3  2  3
  2  4  1  0
  4  5  2  0
  5  6  1  0
  6  7  2  0
  7  8  1  0
  8  9  2  0
  7 10  1  0
 10 11  2  0
 11 12  1  0
 11 13  1  0
 13 14  2  0
 14 15  1  0
 14 16  1  0
 16 17  2  0
 17 18  1  0
 18 19  2  0
  9  4  1  0
 19 13  1  0
 12  6  1  0
  1 20  1  0
  1 21  1  0
  3 22  1  0
  5 23  1  0
  8 24  1  0
  9 25  1  0
 12 26  1  0
 15 27  1  0
 16 28  1  0
 17 29  1  0
 18 30  1  0
M  END
$$$$
