
     RDKit          3D

 39 38  0  0  0  0  0  0  0  0999 V2000
    4.7854    1.4916    1.8005 N   0  0  0  0  0  0  0  0  0  0  0  0
    4.4244    0.4003    0.9538 C   0  0  0  0  0  0  0  0  0  0  0  0
    5.1276    0.1404   -0.0596 O   0  0  0  0  0  0  0  0  0  0  0  0
    3.2380   -0.4634    1.2882 C   0  0  2  0  0  0  0  0  0  0  0  0
    3.7091   -1.7644    1.9423 C   0  0  0  0  0  0  0  0  0  0  0  0
    2.4619   -0.7474    0.0771 N   0  0  0  0  0  0  0  0  0  0  0  0
    1.6593    0.2551   -0.5637 C   0  0  0  0  0  0  0  0  0  0  0  0
    1.6130    1.4258   -0.0948 O   0  0  0  0  0  0  0  0  0  0  0  0
    0.9018   -0.0725   -1.8226 C   0  0  2  0  0  0  0  0  0  0  0  0
    1.6586    0.4667   -3.0386 C   0  0  0  0  0  0  0  0  0  0  0  0
   -0.4490    0.4946   -1.7625 N   0  0  0  0  0  0  0  0  0  0  0  0
   -1.4569   -0.0257   -0.8881 C   0  0  0  0  0  0  0  0  0  0  0  0
   -1.2017   -1.0155   -0.1495 O   0  0  0  0  0  0  0  0  0  0  0  0
   -2.7203    0.5838   -0.8703 O   0  0  0  0  0  0  0  0  0  0  0  0
   -3.8359    0.2033   -0.0508 C   0  0  0  0  0  0  0  0  0  0  0  0
   -4.9894    1.1632   -0.3797 C   0  0  0  0  0  0  0  0  0  0  0  0
   -3.4841    0.3419    1.4429 C   0  0  0  0  0  0  0  0  0  0  0  0
   -4.2801   -1.2365   -0.3729 C   0  0  0  0  0  0  0  0  0  0  0  0
    5.6149    2.0830    1.5717 H   0  0  0  0  0  0  0  0  0  0  0  0
    4.2309    1.7099    2.6578 H   0  0  0  0  0  0  0  0  0  0  0  0
    2.5836    0.0628    2.0178 H   0  0  0  0  0  0  0  0  0  0  0  0
    2.8321   -2.3953    2.2006 H   0  0  0  0  0  0  0  0  0  0  0  0
    4.3694   -2.3341    1.2532 H   0  0  0  0  0  0  0  0  0  0  0  0
    4.2681   -1.5424    2.8766 H   0  0  0  0  0  0  0  0  0  0  0  0
    2.4945   -1.7047   -0.3425 H   0  0  0  0  0  0  0  0  0  0  0  0
    0.8206   -1.1759   -1.9379 H   0  0  0  0  0  0  0  0  0  0  0  0
    1.1087    0.2105   -3.9691 H   0  0  0  0  0  0  0  0  0  0  0  0
    2.6704    0.0104   -3.0925 H   0  0  0  0  0  0  0  0  0  0  0  0
    1.7639    1.5715   -2.9774 H   0  0  0  0  0  0  0  0  0  0  0  0
   -0.7016    1.3070   -2.3703 H   0  0  0  0  0  0  0  0  0  0  0  0
   -4.6899    2.2123   -0.1678 H   0  0  0  0  0  0  0  0  0  0  0  0
   -5.2549    1.0918   -1.4566 H   0  0  0  0  0  0  0  0  0  0  0  0
   -5.8921    0.9245    0.2237 H   0  0  0  0  0  0  0  0  0  0  0  0
   -3.0926    1.3606    1.6513 H   0  0  0  0  0  0  0  0  0  0  0  0
   -2.7150   -0.3963    1.7483 H   0  0  0  0  0  0  0  0  0  0  0  0
   -4.3835    0.1718    2.0735 H   0  0  0  0  0  0  0  0  0  0  0  0
   -4.4573   -1.3478   -1.4640 H   0  0  0  0  0  0  0  0  0  0  0  0
   -3.5120   -1.9757   -0.0670 H   0  0  0  0  0  0  0  0  0  0  0  0
   -5.2198   -1.4852    0.1662 H   0  0  0  0  0  0  0  0  0  0  0  0
  1  2  1  0
  2  3  2  0
  2  4  1  0
  4  5  1  0
  4  6  1  0
  6  7  1  0
  7  8  2  0
  7  9  1  0
  9 10  1  0
  9 11  1  0
 11 12  1  0
 12 13  2  0
 12 14  1  0
 14 15  1  0
 15 16  1  0
 15 17  1  0
 15 18  1  0
  1 19  1  0
  1 20  1  0
  4 21  1  1
  5 22  1  0
  5 23  1  0
  5 24  1  0
  6 25  1  0
  9 26  1  6
 10 27  1  0
 10 28  1  0
 10 29  1  0
 11 30  1  0
 16 31  1  0
 16 32  1  0
 16 33  1  0
 17 34  1  0
 17 35  1  0
 17 36  1  0
 18 37  1  0
 18 38  1  0
 18 39  1  0
M  END
$$$$
