
     RDKit          3D

 61 64  0  0  0  0  0  0  0  0999 V2000
    0.0197    1.4376   -0.7117 C   0  0  2  0  0  0  0  0  0  0  0  0
    0.5339    2.3006   -1.8569 C   0  0  0  0  0  0  0  0  0  0  0  0
    2.0544    2.3817   -1.6315 C   0  0  0  0  0  0  0  0  0  0  0  0
    2.3962    1.4262   -0.4464 C   0  0  2  0  0  0  0  0  0  0  0  0
    2.4379    2.2365    0.7123 O   0  0  0  0  0  0  0  0  0  0  0  0
    3.7499    0.7194   -0.6470 C   0  0  0  0  0  0  0  0  0  0  0  0
    4.1659    0.5041   -1.7774 O   0  0  0  0  0  0  0  0  0  0  0  0
    4.5839    0.2631    0.5236 C   0  0  0  0  0  0  0  0  0  0  0  0
    5.6399   -0.5881    0.0850 O   0  0  0  0  0  0  0  0  0  0  0  0
    6.5623   -1.1592    0.9660 C   0  0  0  0  0  0  0  0  0  0  0  0
    7.6513   -2.0250    0.4303 C   0  0  0  0  0  0  0  0  0  0  0  0
    6.5077   -0.9172    2.2024 O   0  0  0  0  0  0  0  0  0  0  0  0
    1.1620    0.4545   -0.4205 C   0  0  2  0  0  0  0  0  0  0  0  0
    1.3318   -0.6306   -1.5388 C   0  0  0  0  0  0  0  0  0  0  0  0
    0.8506   -0.2305    0.9397 C   0  0  0  0  0  0  0  0  0  0  0  0
   -0.5351   -0.9348    0.9577 C   0  0  2  0  0  0  0  0  0  0  0  0
   -0.4852   -2.1238    0.2160 O   0  0  0  0  0  0  0  0  0  0  0  0
   -1.6982    0.0020    0.4694 C   0  0  1  0  0  0  0  0  0  0  0  0
   -1.3632    0.7584   -0.8619 C   0  0  1  0  0  0  0  0  0  0  0  0
   -2.4421    1.8224   -1.1445 C   0  0  0  0  0  0  0  0  0  0  0  0
   -3.8282    1.1968   -1.2507 C   0  0  0  0  0  0  0  0  0  0  0  0
   -4.1533    0.3942   -0.0145 C   0  0  0  0  0  0  0  0  0  0  0  0
   -5.3972    0.4705    0.4943 C   0  0  0  0  0  0  0  0  0  0  0  0
   -5.8445   -0.3978    1.5909 C   0  0  0  0  0  0  0  0  0  0  0  0
   -7.0051   -0.2615    2.0610 O   0  0  0  0  0  0  0  0  0  0  0  0
   -4.9594   -1.4872    2.1024 C   0  0  0  0  0  0  0  0  0  0  0  0
   -3.4882   -1.1032    1.9266 C   0  0  0  0  0  0  0  0  0  0  0  0
   -3.1401   -0.6536    0.4700 C   0  0  2  0  0  0  0  0  0  0  0  0
   -3.2447   -1.8751   -0.4815 C   0  0  0  0  0  0  0  0  0  0  0  0
   -0.0718    2.1304    0.1610 H   0  0  0  0  0  0  0  0  0  0  0  0
    0.3088    1.8222   -2.8355 H   0  0  0  0  0  0  0  0  0  0  0  0
    0.0747    3.3130   -1.8327 H   0  0  0  0  0  0  0  0  0  0  0  0
    2.5628    2.1006   -2.5782 H   0  0  0  0  0  0  0  0  0  0  0  0
    2.3548    3.4274   -1.3983 H   0  0  0  0  0  0  0  0  0  0  0  0
    2.6731    1.6807    1.4967 H   0  0  0  0  0  0  0  0  0  0  0  0
    3.9454   -0.2954    1.2395 H   0  0  0  0  0  0  0  0  0  0  0  0
    5.0146    1.1531    1.0306 H   0  0  0  0  0  0  0  0  0  0  0  0
    8.5724   -1.4206    0.2968 H   0  0  0  0  0  0  0  0  0  0  0  0
    7.3498   -2.4510   -0.5496 H   0  0  0  0  0  0  0  0  0  0  0  0
    7.8575   -2.8580    1.1350 H   0  0  0  0  0  0  0  0  0  0  0  0
    1.6636   -0.1874   -2.4998 H   0  0  0  0  0  0  0  0  0  0  0  0
    0.4084   -1.1877   -1.7682 H   0  0  0  0  0  0  0  0  0  0  0  0
    2.0932   -1.3789   -1.2319 H   0  0  0  0  0  0  0  0  0  0  0  0
    0.8314    0.5208    1.7569 H   0  0  0  0  0  0  0  0  0  0  0  0
    1.6467   -0.9634    1.1902 H   0  0  0  0  0  0  0  0  0  0  0  0
   -0.7358   -1.1917    2.0231 H   0  0  0  0  0  0  0  0  0  0  0  0
    0.0392   -2.7782    0.7478 H   0  0  0  0  0  0  0  0  0  0  0  0
   -1.7438    0.8025    1.2454 H   0  0  0  0  0  0  0  0  0  0  0  0
   -1.3519    0.0625   -1.7222 H   0  0  0  0  0  0  0  0  0  0  0  0
   -2.2224    2.3378   -2.1043 H   0  0  0  0  0  0  0  0  0  0  0  0
   -2.4486    2.5900   -0.3386 H   0  0  0  0  0  0  0  0  0  0  0  0
   -3.8703    0.5295   -2.1385 H   0  0  0  0  0  0  0  0  0  0  0  0
   -4.5653    2.0143   -1.4118 H   0  0  0  0  0  0  0  0  0  0  0  0
   -6.1098    1.1791    0.0883 H   0  0  0  0  0  0  0  0  0  0  0  0
   -5.1808   -2.4271    1.5540 H   0  0  0  0  0  0  0  0  0  0  0  0
   -5.1640   -1.6620    3.1810 H   0  0  0  0  0  0  0  0  0  0  0  0
   -3.2632   -0.2789    2.6399 H   0  0  0  0  0  0  0  0  0  0  0  0
   -2.8699   -1.9762    2.2266 H   0  0  0  0  0  0  0  0  0  0  0  0
   -2.7570   -1.6812   -1.4572 H   0  0  0  0  0  0  0  0  0  0  0  0
   -4.3082   -2.1208   -0.6905 H   0  0  0  0  0  0  0  0  0  0  0  0
   -2.7963   -2.7854   -0.0341 H   0  0  0  0  0  0  0  0  0  0  0  0
  1  2  1  0
  2  3  1  0
  3  4  1  0
  4  5  1  1
  4  6  1  0
  6  7  2  0
  6  8  1  0
  8  9  1  0
  9 10  1  0
 10 11  1  0
 10 12  2  0
  4 13  1  0
 13 14  1  6
 13 15  1  0
 15 16  1  0
 16 17  1  0
 16 18  1  0
 18 19  1  0
 19 20  1  0
 20 21  1  0
 21 22  1  0
 22 23  2  0
 23 24  1  0
 24 25  2  0
 24 26  1  0
 26 27  1  0
 27 28  1  0
 28 29  1  6
 13  1  1  0
 28 18  1  0
 19  1  1  0
 28 22  1  0
  1 30  1  1
  2 31  1  0
  2 32  1  0
  3 33  1  0
  3 34  1  0
  5 35  1  0
  8 36  1  0
  8 37  1  0
 11 38  1  0
 11 39  1  0
 11 40  1  0
 14 41  1  0
 14 42  1  0
 14 43  1  0
 15 44  1  0
 15 45  1  0
 16 46  1  1
 17 47  1  0
 18 48  1  1
 19 49  1  6
 20 50  1  0
 20 51  1  0
 21 52  1  0
 21 53  1  0
 23 54  1  0
 26 55  1  0
 26 56  1  0
 27 57  1  0
 27 58  1  0
 29 59  1  0
 29 60  1  0
 29 61  1  0
M  END
$$$$
