
     RDKit          3D

 49 53  0  0  0  0  0  0  0  0999 V2000
    9.2048    0.3961    0.7248 O   0  0  0  0  0  0  0  0  0  0  0  0
    8.0563    1.1815    0.6658 C   0  0  0  0  0  0  0  0  0  0  0  0
    8.1685    2.4369    0.6304 O   0  0  0  0  0  0  0  0  0  0  0  0
    6.7196    0.5475    0.6443 C   0  0  0  0  0  0  0  0  0  0  0  0
    5.5539    1.3318    0.5902 C   0  0  0  0  0  0  0  0  0  0  0  0
    4.2931    0.7283    0.5693 C   0  0  0  0  0  0  0  0  0  0  0  0
    4.1747   -0.6717    0.5874 C   0  0  0  0  0  0  0  0  0  0  0  0
    2.8891   -1.3153    0.5922 N   0  0  0  0  0  0  0  0  0  0  0  0
    1.7464   -0.8403   -0.1336 C   0  0  0  0  0  0  0  0  0  0  0  0
    1.8780    0.1061   -1.1001 N   0  0  0  0  0  0  0  0  0  0  0  0
    0.8063    0.5344   -1.8126 C   0  0  0  0  0  0  0  0  0  0  0  0
   -0.4620   -0.0066   -1.5684 C   0  0  0  0  0  0  0  0  0  0  0  0
   -1.6582    0.4681   -2.3382 C   0  0  0  0  0  0  0  0  0  0  0  0
   -2.5776    1.1284   -1.4231 N   0  0  0  0  0  0  0  0  0  0  0  0
   -3.2259    0.5379   -0.4603 C   0  0  0  0  0  0  0  0  0  0  0  0
   -3.1236   -0.9363   -0.2311 C   0  0  0  0  0  0  0  0  0  0  0  0
   -1.8868   -1.6410   -0.2600 C   0  0  0  0  0  0  0  0  0  0  0  0
   -1.8779   -3.0178    0.0341 C   0  0  0  0  0  0  0  0  0  0  0  0
   -3.0604   -3.6953    0.3293 C   0  0  0  0  0  0  0  0  0  0  0  0
   -4.2736   -3.0110    0.3405 C   0  0  0  0  0  0  0  0  0  0  0  0
   -5.7600   -3.8670    0.7084 Cl  0  0  0  0  0  0  0  0  0  0  0  0
   -4.3055   -1.6436    0.0636 C   0  0  0  0  0  0  0  0  0  0  0  0
   -0.5875   -0.9846   -0.5648 C   0  0  0  0  0  0  0  0  0  0  0  0
    0.5252   -1.3826    0.1116 N   0  0  0  0  0  0  0  0  0  0  0  0
   -4.1213    1.3623    0.3901 C   0  0  0  0  0  0  0  0  0  0  0  0
   -4.1558    1.1743    1.7876 C   0  0  0  0  0  0  0  0  0  0  0  0
   -3.3519    0.2593    2.3869 F   0  0  0  0  0  0  0  0  0  0  0  0
   -5.0009    1.9543    2.5830 C   0  0  0  0  0  0  0  0  0  0  0  0
   -5.8135    2.9283    2.0003 C   0  0  0  0  0  0  0  0  0  0  0  0
   -5.7823    3.1290    0.6193 C   0  0  0  0  0  0  0  0  0  0  0  0
   -4.9407    2.3550   -0.1859 C   0  0  0  0  0  0  0  0  0  0  0  0
   -4.9486    2.5570   -1.5283 F   0  0  0  0  0  0  0  0  0  0  0  0
    5.3353   -1.4532    0.6670 C   0  0  0  0  0  0  0  0  0  0  0  0
    6.5969   -0.8515    0.6870 C   0  0  0  0  0  0  0  0  0  0  0  0
   10.1248    0.8200    0.7397 H   0  0  0  0  0  0  0  0  0  0  0  0
    5.6149    2.4129    0.5729 H   0  0  0  0  0  0  0  0  0  0  0  0
    3.4132    1.3577    0.5647 H   0  0  0  0  0  0  0  0  0  0  0  0
    2.7977   -2.2295    1.0908 H   0  0  0  0  0  0  0  0  0  0  0  0
    0.9465    1.2941   -2.5707 H   0  0  0  0  0  0  0  0  0  0  0  0
   -2.1610   -0.3878   -2.8392 H   0  0  0  0  0  0  0  0  0  0  0  0
   -1.3628    1.1911   -3.1279 H   0  0  0  0  0  0  0  0  0  0  0  0
   -0.9505   -3.5774    0.0216 H   0  0  0  0  0  0  0  0  0  0  0  0
   -3.0315   -4.7557    0.5460 H   0  0  0  0  0  0  0  0  0  0  0  0
   -5.2593   -1.1300    0.0787 H   0  0  0  0  0  0  0  0  0  0  0  0
   -5.0217    1.8079    3.6553 H   0  0  0  0  0  0  0  0  0  0  0  0
   -6.4660    3.5300    2.6198 H   0  0  0  0  0  0  0  0  0  0  0  0
   -6.4150    3.8844    0.1713 H   0  0  0  0  0  0  0  0  0  0  0  0
    5.2616   -2.5330    0.7027 H   0  0  0  0  0  0  0  0  0  0  0  0
    7.4749   -1.4831    0.7378 H   0  0  0  0  0  0  0  0  0  0  0  0
  1  2  1  0
  2  3  2  0
  2  4  1  0
  4  5  2  0
  5  6  1  0
  6  7  2  0
  7  8  1  0
  8  9  1  0
  9 10  2  0
 10 11  1  0
 11 12  2  0
 12 13  1  0
 13 14  1  0
 14 15  2  0
 15 16  1  0
 16 17  2  0
 17 18  1  0
 18 19  2  0
 19 20  1  0
 20 21  1  0
 20 22  2  0
 17 23  1  0
 23 24  2  0
 15 25  1  0
 25 26  2  0
 26 27  1  0
 26 28  1  0
 28 29  2  0
 29 30  1  0
 30 31  2  0
 31 32  1  0
  7 33  1  0
 33 34  2  0
 34  4  1  0
 24  9  1  0
 31 25  1  0
 23 12  1  0
 22 16  1  0
  1 35  1  0
  5 36  1  0
  6 37  1  0
  8 38  1  0
 11 39  1  0
 13 40  1  0
 13 41  1  0
 18 42  1  0
 19 43  1  0
 22 44  1  0
 28 45  1  0
 29 46  1  0
 30 47  1  0
 33 48  1  0
 34 49  1  0
M  END
$$$$
