
     RDKit          3D

 30 31  0  0  0  0  0  0  0  0999 V2000
    5.0605    1.1376   -0.3347 C   0  0  0  0  0  0  0  0  0  0  0  0
    4.4415   -0.1388   -0.2111 O   0  0  0  0  0  0  0  0  0  0  0  0
    3.0771   -0.3356    0.0494 C   0  0  0  0  0  0  0  0  0  0  0  0
    2.6014   -1.6470    0.1453 C   0  0  0  0  0  0  0  0  0  0  0  0
    1.2465   -1.9038    0.4012 C   0  0  0  0  0  0  0  0  0  0  0  0
    0.7959   -3.2219    0.4776 O   0  0  0  0  0  0  0  0  0  0  0  0
    0.3454   -0.8314    0.5647 C   0  0  0  0  0  0  0  0  0  0  0  0
    0.8295    0.4857    0.4755 C   0  0  0  0  0  0  0  0  0  0  0  0
    2.1795    0.7331    0.2171 C   0  0  0  0  0  0  0  0  0  0  0  0
   -1.0895   -1.0764    0.8595 C   0  0  0  0  0  0  0  0  0  0  0  0
   -1.4070   -2.0557    1.5880 O   0  0  0  0  0  0  0  0  0  0  0  0
   -2.1608   -0.2003    0.3204 C   0  0  0  0  0  0  0  0  0  0  0  0
   -2.0398    0.3449   -0.9719 C   0  0  0  0  0  0  0  0  0  0  0  0
   -3.0487    1.1552   -1.4983 C   0  0  0  0  0  0  0  0  0  0  0  0
   -4.1926    1.4259   -0.7469 C   0  0  0  0  0  0  0  0  0  0  0  0
   -4.3315    0.8863    0.5332 C   0  0  0  0  0  0  0  0  0  0  0  0
   -3.3234    0.0739    1.0737 C   0  0  0  0  0  0  0  0  0  0  0  0
   -3.4705   -0.4462    2.3598 O   0  0  0  0  0  0  0  0  0  0  0  0
    6.1413    0.9979   -0.5411 H   0  0  0  0  0  0  0  0  0  0  0  0
    4.6074    1.7017   -1.1772 H   0  0  0  0  0  0  0  0  0  0  0  0
    4.9501    1.7087    0.6113 H   0  0  0  0  0  0  0  0  0  0  0  0
    3.2904   -2.4725    0.0163 H   0  0  0  0  0  0  0  0  0  0  0  0
    1.4253   -4.0072    0.3585 H   0  0  0  0  0  0  0  0  0  0  0  0
    0.1638    1.3276    0.6204 H   0  0  0  0  0  0  0  0  0  0  0  0
    2.5154    1.7592    0.1553 H   0  0  0  0  0  0  0  0  0  0  0  0
   -1.1701    0.1323   -1.5812 H   0  0  0  0  0  0  0  0  0  0  0  0
   -2.9455    1.5692   -2.4931 H   0  0  0  0  0  0  0  0  0  0  0  0
   -4.9736    2.0527   -1.1576 H   0  0  0  0  0  0  0  0  0  0  0  0
   -5.2233    1.1027    1.1077 H   0  0  0  0  0  0  0  0  0  0  0  0
   -4.2946   -0.2576    2.9186 H   0  0  0  0  0  0  0  0  0  0  0  0
  1  2  1  0
  2  3  1  0
  3  4  2  0
  4  5  1  0
  5  6  1  0
  5  7  2  0
  7  8  1  0
  8  9  2  0
  7 10  1  0
 10 11  2  0
 10 12  1  0
 12 13  2  0
 13 14  1  0
 14 15  2  0
 15 16  1  0
 16 17  2  0
 17 18  1  0
  9  3  1  0
 17 12  1  0
  1 19  1  0
  1 20  1  0
  1 21  1  0
  4 22  1  0
  6 23  1  0
  8 24  1  0
  9 25  1  0
 13 26  1  0
 14 27  1  0
 15 28  1  0
 16 29  1  0
 18 30  1  0
M  END
$$$$
