
     RDKit          3D

 51 52  0  0  0  0  0  0  0  0999 V2000
   -4.7100    2.7597    1.3472 C   0  0  0  0  0  0  0  0  0  0  0  0
   -4.5189    1.9283    0.1599 N   0  0  0  0  0  0  0  0  0  0  0  0
   -4.9836    2.3919   -1.1458 C   0  0  0  0  0  0  0  0  0  0  0  0
   -4.0255    0.5869    0.2957 C   0  0  0  0  0  0  0  0  0  0  0  0
   -4.9374   -0.4735    0.2865 C   0  0  0  0  0  0  0  0  0  0  0  0
   -4.4976   -1.7839    0.4471 C   0  0  0  0  0  0  0  0  0  0  0  0
   -3.1400   -2.0578    0.6077 C   0  0  0  0  0  0  0  0  0  0  0  0
   -2.1872   -1.0173    0.5985 C   0  0  0  0  0  0  0  0  0  0  0  0
   -2.6438    0.3258    0.4547 C   0  0  0  0  0  0  0  0  0  0  0  0
   -1.7111    1.3785    0.4703 C   0  0  0  0  0  0  0  0  0  0  0  0
   -0.3566    1.1195    0.6535 C   0  0  0  0  0  0  0  0  0  0  0  0
    0.0951   -0.1884    0.7977 C   0  0  0  0  0  0  0  0  0  0  0  0
   -0.7949   -1.2705    0.7400 C   0  0  0  0  0  0  0  0  0  0  0  0
   -0.1252   -2.9119    0.8530 S   0  0  0  0  0  6  0  0  0  0  0  0
   -0.5041   -3.5007    2.1827 O   0  0  0  0  0  0  0  0  0  0  0  0
   -0.6803   -3.7720   -0.2498 O   0  0  0  0  0  0  0  0  0  0  0  0
    1.6110   -2.8769    0.7288 N   0  0  0  0  0  0  0  0  0  0  0  0
    2.0124   -2.7744   -0.6783 C   0  0  0  0  0  0  0  0  0  0  0  0
    3.5111   -2.4599   -0.7929 C   0  0  0  0  0  0  0  0  0  0  0  0
    3.9091   -1.1140   -0.1612 C   0  0  0  0  0  0  0  0  0  0  0  0
    3.4700    0.0933   -1.0107 C   0  0  0  0  0  0  0  0  0  0  0  0
    3.7829    1.4334   -0.3197 C   0  0  2  0  0  0  0  0  0  0  0  0
    3.1678    2.5312   -1.0681 N   0  0  0  0  0  0  0  0  0  0  0  0
    5.2684    1.6533   -0.1884 C   0  0  0  0  0  0  0  0  0  0  0  0
    6.0740    1.6864   -1.3232 O   0  0  0  0  0  0  0  0  0  0  0  0
    5.7834    1.8110    0.9508 O   0  0  0  0  0  0  0  0  0  0  0  0
   -5.7942    2.8495    1.5681 H   0  0  0  0  0  0  0  0  0  0  0  0
   -4.2857    3.7706    1.1713 H   0  0  0  0  0  0  0  0  0  0  0  0
   -4.2001    2.3142    2.2285 H   0  0  0  0  0  0  0  0  0  0  0  0
   -5.3870    3.4251   -1.0799 H   0  0  0  0  0  0  0  0  0  0  0  0
   -5.7859    1.7231   -1.5225 H   0  0  0  0  0  0  0  0  0  0  0  0
   -4.1370    2.3875   -1.8642 H   0  0  0  0  0  0  0  0  0  0  0  0
   -5.9962   -0.2782    0.1711 H   0  0  0  0  0  0  0  0  0  0  0  0
   -5.2152   -2.5944    0.4546 H   0  0  0  0  0  0  0  0  0  0  0  0
   -2.8574   -3.0892    0.7533 H   0  0  0  0  0  0  0  0  0  0  0  0
   -2.0228    2.4081    0.3513 H   0  0  0  0  0  0  0  0  0  0  0  0
    0.3504    1.9390    0.6825 H   0  0  0  0  0  0  0  0  0  0  0  0
    1.1507   -0.3508    0.9533 H   0  0  0  0  0  0  0  0  0  0  0  0
    1.9654   -3.7879    1.1017 H   0  0  0  0  0  0  0  0  0  0  0  0
    1.8156   -3.7392   -1.1973 H   0  0  0  0  0  0  0  0  0  0  0  0
    1.4239   -1.9908   -1.2000 H   0  0  0  0  0  0  0  0  0  0  0  0
    3.8065   -2.4705   -1.8647 H   0  0  0  0  0  0  0  0  0  0  0  0
    4.0809   -3.2708   -0.2889 H   0  0  0  0  0  0  0  0  0  0  0  0
    3.4926   -1.0372    0.8658 H   0  0  0  0  0  0  0  0  0  0  0  0
    5.0165   -1.0974   -0.0671 H   0  0  0  0  0  0  0  0  0  0  0  0
    2.3757    0.0493   -1.1869 H   0  0  0  0  0  0  0  0  0  0  0  0
    3.9699    0.0519   -2.0036 H   0  0  0  0  0  0  0  0  0  0  0  0
    3.3261    1.4150    0.6959 H   0  0  0  0  0  0  0  0  0  0  0  0
    3.6256    2.6159   -2.0054 H   0  0  0  0  0  0  0  0  0  0  0  0
    3.3392    3.4259   -0.5532 H   0  0  0  0  0  0  0  0  0  0  0  0
    7.0733    1.8332   -1.2467 H   0  0  0  0  0  0  0  0  0  0  0  0
  1  2  1  0
  2  3  1  0
  2  4  1  0
  4  5  2  0
  5  6  1  0
  6  7  2  0
  7  8  1  0
  8  9  2  0
  9 10  1  0
 10 11  2  0
 11 12  1  0
 12 13  2  0
 13 14  1  0
 14 15  2  0
 14 16  2  0
 14 17  1  0
 17 18  1  0
 18 19  1  0
 19 20  1  0
 20 21  1  0
 21 22  1  0
 22 23  1  0
 22 24  1  0
 24 25  1  0
 24 26  2  0
  9  4  1  0
 13  8  1  0
  1 27  1  0
  1 28  1  0
  1 29  1  0
  3 30  1  0
  3 31  1  0
  3 32  1  0
  5 33  1  0
  6 34  1  0
  7 35  1  0
 10 36  1  0
 11 37  1  0
 12 38  1  0
 17 39  1  0
 18 40  1  0
 18 41  1  0
 19 42  1  0
 19 43  1  0
 20 44  1  0
 20 45  1  0
 21 46  1  0
 21 47  1  0
 22 48  1  1
 23 49  1  0
 23 50  1  0
 25 51  1  0
M  END
$$$$
