
     RDKit          3D

 47 48  0  0  0  0  0  0  0  0999 V2000
   -1.1611    0.3194    2.9711 C   0  0  0  0  0  0  0  0  0  0  0  0
   -0.9616    0.1297    1.4565 C   0  0  0  0  0  0  0  0  0  0  0  0
   -1.0056   -1.3572    1.0253 C   0  0  0  0  0  0  0  0  0  0  0  0
   -2.4295   -1.9376    0.9460 C   0  0  0  0  0  0  0  0  0  0  0  0
   -3.2239   -1.3533   -0.1954 C   0  0  0  0  0  0  0  0  0  0  0  0
   -4.2393   -0.4128    0.0498 C   0  0  0  0  0  0  0  0  0  0  0  0
   -4.9604    0.1386   -1.0137 C   0  0  0  0  0  0  0  0  0  0  0  0
   -4.6743   -0.2433   -2.3271 C   0  0  0  0  0  0  0  0  0  0  0  0
   -3.6660   -1.1775   -2.5796 C   0  0  0  0  0  0  0  0  0  0  0  0
   -2.9422   -1.7313   -1.5192 C   0  0  0  0  0  0  0  0  0  0  0  0
    0.2432    0.8098    0.9192 N   0  0  0  0  0  0  0  0  0  0  0  0
    1.4976    0.7444    1.7094 C   0  0  0  0  0  0  0  0  0  0  0  0
    2.0402   -0.6937    1.8116 C   0  0  0  0  0  0  0  0  0  0  0  0
    2.5567    1.6991    1.0813 C   0  0  0  0  0  0  0  0  0  0  0  0
    3.7297    1.7259    1.8568 O   0  0  0  0  0  0  0  0  0  0  0  0
    2.8891    1.3251   -0.3519 C   0  0  0  0  0  0  0  0  0  0  0  0
    3.9065    0.3972   -0.6461 C   0  0  0  0  0  0  0  0  0  0  0  0
    4.1758    0.0369   -1.9696 C   0  0  0  0  0  0  0  0  0  0  0  0
    3.4336    0.5922   -3.0157 C   0  0  0  0  0  0  0  0  0  0  0  0
    3.7125    0.2224   -4.3295 O   0  0  0  0  0  0  0  0  0  0  0  0
    2.4170    1.5131   -2.7332 C   0  0  0  0  0  0  0  0  0  0  0  0
    2.1451    1.8759   -1.4110 C   0  0  0  0  0  0  0  0  0  0  0  0
   -1.0571    1.3927    3.2367 H   0  0  0  0  0  0  0  0  0  0  0  0
   -2.1818   -0.0022    3.2653 H   0  0  0  0  0  0  0  0  0  0  0  0
   -0.4316   -0.2764    3.5566 H   0  0  0  0  0  0  0  0  0  0  0  0
   -1.8342    0.6283    0.9793 H   0  0  0  0  0  0  0  0  0  0  0  0
   -0.4379   -1.9822    1.7424 H   0  0  0  0  0  0  0  0  0  0  0  0
   -0.5154   -1.4720    0.0336 H   0  0  0  0  0  0  0  0  0  0  0  0
   -2.9574   -1.7898    1.9123 H   0  0  0  0  0  0  0  0  0  0  0  0
   -2.3553   -3.0369    0.7962 H   0  0  0  0  0  0  0  0  0  0  0  0
   -4.4678   -0.1027    1.0620 H   0  0  0  0  0  0  0  0  0  0  0  0
   -5.7402    0.8637   -0.8195 H   0  0  0  0  0  0  0  0  0  0  0  0
   -5.2331    0.1851   -3.1491 H   0  0  0  0  0  0  0  0  0  0  0  0
   -3.4446   -1.4719   -3.5973 H   0  0  0  0  0  0  0  0  0  0  0  0
   -2.1621   -2.4529   -1.7284 H   0  0  0  0  0  0  0  0  0  0  0  0
   -0.0091    1.8208    0.8075 H   0  0  0  0  0  0  0  0  0  0  0  0
    1.3166    1.1207    2.7394 H   0  0  0  0  0  0  0  0  0  0  0  0
    1.4825   -1.2662    2.5769 H   0  0  0  0  0  0  0  0  0  0  0  0
    3.0990   -0.6995    2.1438 H   0  0  0  0  0  0  0  0  0  0  0  0
    1.9714   -1.2124    0.8321 H   0  0  0  0  0  0  0  0  0  0  0  0
    2.1323    2.7314    1.0746 H   0  0  0  0  0  0  0  0  0  0  0  0
    3.5119    2.2100    2.6960 H   0  0  0  0  0  0  0  0  0  0  0  0
    4.4906   -0.0518    0.1467 H   0  0  0  0  0  0  0  0  0  0  0  0
    4.9610   -0.6775   -2.1824 H   0  0  0  0  0  0  0  0  0  0  0  0
    3.1920    0.6066   -5.1094 H   0  0  0  0  0  0  0  0  0  0  0  0
    1.8354    1.9465   -3.5368 H   0  0  0  0  0  0  0  0  0  0  0  0
    1.3518    2.5860   -1.2137 H   0  0  0  0  0  0  0  0  0  0  0  0
  1  2  1  0
  2  3  1  0
  3  4  1  0
  4  5  1  0
  5  6  2  0
  6  7  1  0
  7  8  2  0
  8  9  1  0
  9 10  2  0
  2 11  1  0
 11 12  1  0
 12 13  1  0
 12 14  1  0
 14 15  1  0
 14 16  1  0
 16 17  2  0
 17 18  1  0
 18 19  2  0
 19 20  1  0
 19 21  1  0
 21 22  2  0
 10  5  1  0
 22 16  1  0
  1 23  1  0
  1 24  1  0
  1 25  1  0
  2 26  1  0
  3 27  1  0
  3 28  1  0
  4 29  1  0
  4 30  1  0
  6 31  1  0
  7 32  1  0
  8 33  1  0
  9 34  1  0
 10 35  1  0
 11 36  1  0
 12 37  1  0
 13 38  1  0
 13 39  1  0
 13 40  1  0
 14 41  1  0
 15 42  1  0
 17 43  1  0
 18 44  1  0
 20 45  1  0
 21 46  1  0
 22 47  1  0
M  END
$$$$
