
     RDKit          3D

 30 32  0  0  0  0  0  0  0  0999 V2000
    5.9180    0.0576    0.4662 C   0  0  0  0  0  0  0  0  0  0  0  0
    5.0075   -0.4289   -0.5655 N   0  0  0  0  0  0  0  0  0  0  0  0
    3.5724   -0.3432   -0.4657 C   0  0  0  0  0  0  0  0  0  0  0  0
    2.7711   -0.8382   -1.5090 C   0  0  0  0  0  0  0  0  0  0  0  0
    3.3393   -1.3957   -2.6081 F   0  0  0  0  0  0  0  0  0  0  0  0
    1.3769   -0.7640   -1.4303 C   0  0  0  0  0  0  0  0  0  0  0  0
    0.7522   -0.1936   -0.3080 C   0  0  0  0  0  0  0  0  0  0  0  0
    1.5532    0.3010    0.7345 C   0  0  0  0  0  0  0  0  0  0  0  0
    2.9466    0.2279    0.6580 C   0  0  0  0  0  0  0  0  0  0  0  0
   -0.7242   -0.1106   -0.2158 C   0  0  0  0  0  0  0  0  0  0  0  0
   -1.3723    0.4313    0.8478 N   0  0  0  0  0  0  0  0  0  0  0  0
   -2.7192    0.3849    0.6847 C   0  0  0  0  0  0  0  0  0  0  0  0
   -3.6429    0.8669    1.6128 C   0  0  0  0  0  0  0  0  0  0  0  0
   -5.0137    0.7578    1.3213 C   0  0  0  0  0  0  0  0  0  0  0  0
   -5.4455    0.1705    0.1103 C   0  0  0  0  0  0  0  0  0  0  0  0
   -6.8037    0.0623   -0.1786 O   0  0  0  0  0  0  0  0  0  0  0  0
   -4.5025   -0.3101   -0.8139 C   0  0  0  0  0  0  0  0  0  0  0  0
   -3.1518   -0.1887   -0.4988 C   0  0  0  0  0  0  0  0  0  0  0  0
   -1.8169   -0.6648   -1.3938 S   0  0  0  0  0  0  0  0  0  0  0  0
    5.7744    1.1487    0.6136 H   0  0  0  0  0  0  0  0  0  0  0  0
    5.7330   -0.4816    1.4189 H   0  0  0  0  0  0  0  0  0  0  0  0
    6.9692   -0.1221    0.1565 H   0  0  0  0  0  0  0  0  0  0  0  0
    5.4353   -0.8600   -1.4160 H   0  0  0  0  0  0  0  0  0  0  0  0
    0.7912   -1.1550   -2.2519 H   0  0  0  0  0  0  0  0  0  0  0  0
    1.1034    0.7465    1.6130 H   0  0  0  0  0  0  0  0  0  0  0  0
    3.5272    0.6200    1.4817 H   0  0  0  0  0  0  0  0  0  0  0  0
   -3.3125    1.3168    2.5404 H   0  0  0  0  0  0  0  0  0  0  0  0
   -5.7398    1.1281    2.0336 H   0  0  0  0  0  0  0  0  0  0  0  0
   -7.5099    0.3985    0.4657 H   0  0  0  0  0  0  0  0  0  0  0  0
   -4.8162   -0.7625   -1.7459 H   0  0  0  0  0  0  0  0  0  0  0  0
  1  2  1  0
  2  3  1  0
  3  4  2  0
  4  5  1  0
  4  6  1  0
  6  7  2  0
  7  8  1  0
  8  9  2  0
  7 10  1  0
 10 11  2  0
 11 12  1  0
 12 13  2  0
 13 14  1  0
 14 15  2  0
 15 16  1  0
 15 17  1  0
 17 18  2  0
 18 19  1  0
  9  3  1  0
 19 10  1  0
 18 12  1  0
  1 20  1  0
  1 21  1  0
  1 22  1  0
  2 23  1  0
  6 24  1  0
  8 25  1  0
  9 26  1  0
 13 27  1  0
 14 28  1  0
 16 29  1  0
 17 30  1  0
M  ISO  1   5  18
M  END
$$$$
