
     RDKit          3D

 49 52  0  0  0  0  0  0  0  0999 V2000
    4.1259    4.0581   -0.4416 O   0  0  0  0  0  0  0  0  0  0  0  0
    4.3983    2.6966   -0.2322 C   0  0  0  0  0  0  0  0  0  0  0  0
    3.8334    1.8739   -1.4085 C   0  0  0  0  0  0  0  0  0  0  0  0
    2.4028    1.3976   -1.1194 C   0  0  0  0  0  0  0  0  0  0  0  0
    2.3146    0.5398    0.0948 N   0  0  0  0  0  0  0  0  0  0  0  0
    2.2109   -0.8977   -0.2398 C   0  0  0  0  0  0  0  0  0  0  0  0
    0.7557   -1.2876   -0.5376 C   0  0  0  0  0  0  0  0  0  0  0  0
   -0.1213   -1.2425    0.7294 C   0  0  0  0  0  0  0  0  0  0  0  0
   -1.5377   -0.9898    0.4192 N   0  0  0  0  0  0  0  0  0  0  0  0
   -2.0810    0.3454    0.5313 C   0  0  0  0  0  0  0  0  0  0  0  0
   -1.4407    1.4448   -0.0654 C   0  0  0  0  0  0  0  0  0  0  0  0
   -2.0580    2.6993   -0.0778 C   0  0  0  0  0  0  0  0  0  0  0  0
   -3.3210    2.8660    0.4964 C   0  0  0  0  0  0  0  0  0  0  0  0
   -3.9590    1.7847    1.1091 C   0  0  0  0  0  0  0  0  0  0  0  0
   -3.3337    0.5339    1.1454 C   0  0  0  0  0  0  0  0  0  0  0  0
   -4.0619   -0.8068    2.0884 S   0  0  0  0  0  0  0  0  0  0  0  0
   -3.7379   -2.0265    0.8142 C   0  0  0  0  0  0  0  0  0  0  0  0
   -2.4676   -2.0773    0.2073 C   0  0  0  0  0  0  0  0  0  0  0  0
   -2.1944   -3.1027   -0.7147 C   0  0  0  0  0  0  0  0  0  0  0  0
   -3.1733   -4.0564   -1.0256 C   0  0  0  0  0  0  0  0  0  0  0  0
   -4.4383   -3.9799   -0.4320 C   0  0  0  0  0  0  0  0  0  0  0  0
   -4.7209   -2.9640    0.4831 C   0  0  0  0  0  0  0  0  0  0  0  0
   -2.8874   -5.0988   -1.9766 C   0  0  0  0  0  0  0  0  0  0  0  0
   -2.6575   -5.9367   -2.7410 N   0  0  0  0  0  0  0  0  0  0  0  0
    3.3954    0.7749    1.0832 C   0  0  0  0  0  0  0  0  0  0  0  0
    3.8113    2.2486    1.1248 C   0  0  0  0  0  0  0  0  0  0  0  0
    4.7112    4.5653    0.1798 H   0  0  0  0  0  0  0  0  0  0  0  0
    5.5027    2.5414   -0.2175 H   0  0  0  0  0  0  0  0  0  0  0  0
    3.8468    2.4776   -2.3422 H   0  0  0  0  0  0  0  0  0  0  0  0
    4.4757    0.9826   -1.5829 H   0  0  0  0  0  0  0  0  0  0  0  0
    2.0068    0.8826   -2.0224 H   0  0  0  0  0  0  0  0  0  0  0  0
    1.7586    2.2901   -0.9667 H   0  0  0  0  0  0  0  0  0  0  0  0
    2.8545   -1.1465   -1.1138 H   0  0  0  0  0  0  0  0  0  0  0  0
    2.5624   -1.5356    0.6041 H   0  0  0  0  0  0  0  0  0  0  0  0
    0.7711   -2.3231   -0.9336 H   0  0  0  0  0  0  0  0  0  0  0  0
    0.3391   -0.6406   -1.3360 H   0  0  0  0  0  0  0  0  0  0  0  0
    0.2412   -0.4523    1.4236 H   0  0  0  0  0  0  0  0  0  0  0  0
   -0.0225   -2.2049    1.2779 H   0  0  0  0  0  0  0  0  0  0  0  0
   -0.4834    1.3327   -0.5475 H   0  0  0  0  0  0  0  0  0  0  0  0
   -1.5632    3.5397   -0.5474 H   0  0  0  0  0  0  0  0  0  0  0  0
   -3.7989    3.8370    0.4791 H   0  0  0  0  0  0  0  0  0  0  0  0
   -4.9216    1.9278    1.5834 H   0  0  0  0  0  0  0  0  0  0  0  0
   -1.2473   -3.1414   -1.2274 H   0  0  0  0  0  0  0  0  0  0  0  0
   -5.2038   -4.7077   -0.6732 H   0  0  0  0  0  0  0  0  0  0  0  0
   -5.6948   -2.9223    0.9539 H   0  0  0  0  0  0  0  0  0  0  0  0
    4.2939    0.1584    0.8480 H   0  0  0  0  0  0  0  0  0  0  0  0
    3.0320    0.4787    2.0909 H   0  0  0  0  0  0  0  0  0  0  0  0
    4.5654    2.4026    1.9268 H   0  0  0  0  0  0  0  0  0  0  0  0
    2.9172    2.8609    1.3776 H   0  0  0  0  0  0  0  0  0  0  0  0
  1  2  1  0
  2  3  1  0
  3  4  1  0
  4  5  1  0
  5  6  1  0
  6  7  1  0
  7  8  1  0
  8  9  1  0
  9 10  1  0
 10 11  2  0
 11 12  1  0
 12 13  2  0
 13 14  1  0
 14 15  2  0
 15 16  1  0
 16 17  1  0
 17 18  2  0
 18 19  1  0
 19 20  2  0
 20 21  1  0
 21 22  2  0
 20 23  1  0
 23 24  3  0
  5 25  1  0
 25 26  1  0
 26  2  1  0
 18  9  1  0
 15 10  1  0
 22 17  1  0
  1 27  1  0
  2 28  1  0
  3 29  1  0
  3 30  1  0
  4 31  1  0
  4 32  1  0
  6 33  1  0
  6 34  1  0
  7 35  1  0
  7 36  1  0
  8 37  1  0
  8 38  1  0
 11 39  1  0
 12 40  1  0
 13 41  1  0
 14 42  1  0
 19 43  1  0
 21 44  1  0
 22 45  1  0
 25 46  1  0
 25 47  1  0
 26 48  1  0
 26 49  1  0
M  END
$$$$
