
     RDKit          3D

 42 46  0  0  0  0  0  0  0  0999 V2000
    2.9697    0.3425   -1.2223 O   0  0  0  0  0  0  0  0  0  0  0  0
    3.2647    0.3618    0.0031 C   0  0  0  0  0  0  0  0  0  0  0  0
    3.0187   -0.7915    0.8248 N   0  0  0  0  0  0  0  0  0  0  0  0
    2.1030   -1.8437    0.4737 C   0  0  0  0  0  0  0  0  0  0  0  0
    0.9243   -1.5793   -0.2482 C   0  0  0  0  0  0  0  0  0  0  0  0
    0.0248   -2.6153   -0.5537 C   0  0  0  0  0  0  0  0  0  0  0  0
    0.3268   -3.9260   -0.1537 C   0  0  0  0  0  0  0  0  0  0  0  0
    1.4847   -4.1898    0.5809 C   0  0  0  0  0  0  0  0  0  0  0  0
    2.3621   -3.1528    0.9042 C   0  0  0  0  0  0  0  0  0  0  0  0
   -1.2099   -2.3516   -1.3210 C   0  0  0  0  0  0  0  0  0  0  0  0
   -1.7119   -3.2060   -2.2469 N   0  0  0  0  0  0  0  0  0  0  0  0
   -2.8176   -2.6732   -2.7533 N   0  0  0  0  0  0  0  0  0  0  0  0
   -3.0341   -1.4919   -2.1548 C   0  0  0  0  0  0  0  0  0  0  0  0
   -4.0930   -0.6119   -2.3520 C   0  0  0  0  0  0  0  0  0  0  0  0
   -4.1305    0.5534   -1.5651 C   0  0  0  0  0  0  0  0  0  0  0  0
   -3.1261    0.8066   -0.5920 C   0  0  0  0  0  0  0  0  0  0  0  0
   -2.0708   -0.1205   -0.4200 C   0  0  0  0  0  0  0  0  0  0  0  0
   -2.0493   -1.2502   -1.2397 C   0  0  0  0  0  0  0  0  0  0  0  0
   -3.1867    2.0254    0.2424 C   0  0  0  0  0  0  0  0  0  0  0  0
   -4.1621    2.9517    0.1482 N   0  0  0  0  0  0  0  0  0  0  0  0
   -3.8677    3.8749    1.0438 N   0  0  0  0  0  0  0  0  0  0  0  0
   -2.7355    3.5077    1.6629 C   0  0  0  0  0  0  0  0  0  0  0  0
   -2.2685    2.3385    1.1846 N   0  0  0  0  0  0  0  0  0  0  0  0
    3.9013    1.5655    0.5612 C   0  0  0  0  0  0  0  0  0  0  0  0
    4.2198    1.7921    1.8877 C   0  0  0  0  0  0  0  0  0  0  0  0
    4.7852    3.0484    1.9246 C   0  0  0  0  0  0  0  0  0  0  0  0
    4.7766    3.5115    0.6250 C   0  0  0  0  0  0  0  0  0  0  0  0
    4.2433    2.6068   -0.1631 O   0  0  0  0  0  0  0  0  0  0  0  0
    3.6039   -0.9217    1.6802 H   0  0  0  0  0  0  0  0  0  0  0  0
    0.7116   -0.5721   -0.5767 H   0  0  0  0  0  0  0  0  0  0  0  0
   -0.3450   -4.7419   -0.3910 H   0  0  0  0  0  0  0  0  0  0  0  0
    1.7015   -5.2003    0.9025 H   0  0  0  0  0  0  0  0  0  0  0  0
    3.2551   -3.3717    1.4763 H   0  0  0  0  0  0  0  0  0  0  0  0
   -3.4109   -3.1232   -3.4853 H   0  0  0  0  0  0  0  0  0  0  0  0
   -4.8659   -0.8190   -3.0808 H   0  0  0  0  0  0  0  0  0  0  0  0
   -4.9472    1.2498   -1.7068 H   0  0  0  0  0  0  0  0  0  0  0  0
   -1.3161    0.0286    0.3397 H   0  0  0  0  0  0  0  0  0  0  0  0
   -4.4314    4.7348    1.2233 H   0  0  0  0  0  0  0  0  0  0  0  0
   -2.2568    4.0782    2.4477 H   0  0  0  0  0  0  0  0  0  0  0  0
    4.0555    1.1360    2.7317 H   0  0  0  0  0  0  0  0  0  0  0  0
    5.1569    3.5683    2.7974 H   0  0  0  0  0  0  0  0  0  0  0  0
    5.1475    4.4711    0.2907 H   0  0  0  0  0  0  0  0  0  0  0  0
  1  2  2  0
  2  3  1  0
  3  4  1  0
  4  5  2  0
  5  6  1  0
  6  7  2  0
  7  8  1  0
  8  9  2  0
  6 10  1  0
 10 11  2  0
 11 12  1  0
 12 13  1  0
 13 14  2  0
 14 15  1  0
 15 16  2  0
 16 17  1  0
 17 18  2  0
 16 19  1  0
 19 20  2  0
 20 21  1  0
 21 22  1  0
 22 23  2  0
  2 24  1  0
 24 25  2  0
 25 26  1  0
 26 27  2  0
 27 28  1  0
  9  4  1  0
 18 10  1  0
 23 19  1  0
 28 24  1  0
 18 13  1  0
  3 29  1  0
  5 30  1  0
  7 31  1  0
  8 32  1  0
  9 33  1  0
 12 34  1  0
 14 35  1  0
 15 36  1  0
 17 37  1  0
 21 38  1  0
 22 39  1  0
 25 40  1  0
 26 41  1  0
 27 42  1  0
M  END
$$$$
