
     RDKit          3D

 44 46  0  0  0  0  0  0  0  0999 V2000
    1.0872   -3.1682    1.5421 C   0  0  0  0  0  0  0  0  0  0  0  0
    1.3836   -1.7609    1.0991 C   0  0  0  0  0  0  0  0  0  0  0  0
    2.6421   -1.4517    0.5669 C   0  0  0  0  0  0  0  0  0  0  0  0
    2.9215   -0.1438    0.1468 C   0  0  0  0  0  0  0  0  0  0  0  0
    1.9461    0.7965    0.2562 N   0  0  0  0  0  0  0  0  0  0  0  0
    0.7468    0.5129    0.7631 N   0  0  0  0  0  0  0  0  0  0  0  0
    0.4217   -0.7350    1.1971 C   0  0  0  0  0  0  0  0  0  0  0  0
   -0.8883   -0.9795    1.7433 N   0  0  0  0  0  0  0  0  0  0  0  0
   -1.9438    0.0328    1.7368 C   0  0  0  0  0  0  0  0  0  0  0  0
   -2.5409    0.1773    0.3341 C   0  0  0  0  0  0  0  0  0  0  0  0
   -3.5967    1.2163    0.3395 N   0  0  0  0  0  0  0  0  0  0  0  0
   -4.9355    0.6702    0.6543 C   0  0  0  0  0  0  0  0  0  0  0  0
   -5.5831   -0.0154   -0.5646 C   0  0  0  0  0  0  0  0  0  0  0  0
   -5.6205    0.8521   -1.6797 O   0  0  0  0  0  0  0  0  0  0  0  0
   -4.3038    1.2120   -2.0437 C   0  0  0  0  0  0  0  0  0  0  0  0
   -3.6344    2.0012   -0.9110 C   0  0  0  0  0  0  0  0  0  0  0  0
    4.2375    0.2333   -0.4300 C   0  0  0  0  0  0  0  0  0  0  0  0
    5.4233   -0.4273   -0.0497 C   0  0  0  0  0  0  0  0  0  0  0  0
    6.6523   -0.0499   -0.5999 C   0  0  0  0  0  0  0  0  0  0  0  0
    6.7155    0.9909   -1.5284 C   0  0  0  0  0  0  0  0  0  0  0  0
    5.5502    1.6612   -1.9051 C   0  0  0  0  0  0  0  0  0  0  0  0
    4.3185    1.2893   -1.3578 C   0  0  0  0  0  0  0  0  0  0  0  0
    1.9345   -3.8535    1.3265 H   0  0  0  0  0  0  0  0  0  0  0  0
    0.9005   -3.1851    2.6364 H   0  0  0  0  0  0  0  0  0  0  0  0
    0.1938   -3.5521    1.0061 H   0  0  0  0  0  0  0  0  0  0  0  0
    3.3834   -2.2327    0.4584 H   0  0  0  0  0  0  0  0  0  0  0  0
   -1.1021   -1.8868    2.2135 H   0  0  0  0  0  0  0  0  0  0  0  0
   -1.5381    1.0071    2.0857 H   0  0  0  0  0  0  0  0  0  0  0  0
   -2.7402   -0.2731    2.4482 H   0  0  0  0  0  0  0  0  0  0  0  0
   -1.7167    0.4480   -0.3614 H   0  0  0  0  0  0  0  0  0  0  0  0
   -2.9315   -0.8070   -0.0031 H   0  0  0  0  0  0  0  0  0  0  0  0
   -4.8831   -0.0496    1.4992 H   0  0  0  0  0  0  0  0  0  0  0  0
   -5.5920    1.5044    0.9849 H   0  0  0  0  0  0  0  0  0  0  0  0
   -5.0652   -0.9661   -0.8200 H   0  0  0  0  0  0  0  0  0  0  0  0
   -6.6266   -0.2865   -0.2992 H   0  0  0  0  0  0  0  0  0  0  0  0
   -4.3528    1.8581   -2.9453 H   0  0  0  0  0  0  0  0  0  0  0  0
   -3.7009    0.3157   -2.3152 H   0  0  0  0  0  0  0  0  0  0  0  0
   -2.6134    2.3190   -1.2165 H   0  0  0  0  0  0  0  0  0  0  0  0
   -4.2135    2.9337   -0.7329 H   0  0  0  0  0  0  0  0  0  0  0  0
    5.4105   -1.2175    0.6889 H   0  0  0  0  0  0  0  0  0  0  0  0
    7.5580   -0.5614   -0.3005 H   0  0  0  0  0  0  0  0  0  0  0  0
    7.6682    1.2813   -1.9521 H   0  0  0  0  0  0  0  0  0  0  0  0
    5.6006    2.4700   -2.6226 H   0  0  0  0  0  0  0  0  0  0  0  0
    3.4274    1.8198   -1.6699 H   0  0  0  0  0  0  0  0  0  0  0  0
  1  2  1  0
  2  3  2  0
  3  4  1  0
  4  5  2  0
  5  6  1  0
  6  7  2  0
  7  8  1  0
  8  9  1  0
  9 10  1  0
 10 11  1  0
 11 12  1  0
 12 13  1  0
 13 14  1  0
 14 15  1  0
 15 16  1  0
  4 17  1  0
 17 18  2  0
 18 19  1  0
 19 20  2  0
 20 21  1  0
 21 22  2  0
  7  2  1  0
 16 11  1  0
 22 17  1  0
  1 23  1  0
  1 24  1  0
  1 25  1  0
  3 26  1  0
  8 27  1  0
  9 28  1  0
  9 29  1  0
 10 30  1  0
 10 31  1  0
 12 32  1  0
 12 33  1  0
 13 34  1  0
 13 35  1  0
 15 36  1  0
 15 37  1  0
 16 38  1  0
 16 39  1  0
 18 40  1  0
 19 41  1  0
 20 42  1  0
 21 43  1  0
 22 44  1  0
M  END
$$$$
