
     RDKit          3D

 87 89  0  0  0  0  0  0  0  0999 V2000
   -6.6454   -1.0267    0.2056 C   0  0  2  0  0  0  0  0  0  0  0  0
   -5.6156   -1.8112    0.7513 O   0  0  0  0  0  0  0  0  0  0  0  0
   -6.9640   -1.5375   -1.2153 C   0  0  0  0  0  0  0  0  0  0  0  0
   -8.2442   -1.1277   -1.6090 O   0  0  0  0  0  0  0  0  0  0  0  0
   -6.1921    0.4581    0.2466 C   0  0  1  0  0  0  0  0  0  0  0  0
   -5.0186    0.5910   -0.5459 O   0  0  0  0  0  0  0  0  0  0  0  0
   -3.9670    1.2386    0.1539 C   0  0  1  0  0  0  0  0  0  0  0  0
   -3.4092    0.3636    1.1303 O   0  0  0  0  0  0  0  0  0  0  0  0
   -2.4814   -0.5328    0.5486 C   0  0  2  0  0  0  0  0  0  0  0  0
   -2.1908   -1.6584    1.5490 C   0  0  0  0  0  0  0  0  0  0  0  0
   -1.3571   -2.6207    0.9644 O   0  0  0  0  0  0  0  0  0  0  0  0
   -1.1840    0.2244    0.1543 C   0  0  1  0  0  0  0  0  0  0  0  0
   -0.5789   -0.4593   -0.9338 O   0  0  0  0  0  0  0  0  0  0  0  0
    0.8342   -0.4109   -0.8512 C   0  0  1  0  0  0  0  0  0  0  0  0
    1.2797   -1.3150    0.1453 O   0  0  0  0  0  0  0  0  0  0  0  0
    2.6595   -1.1378    0.4551 C   0  0  2  0  0  0  0  0  0  0  0  0
    2.8169   -0.1691    1.6319 C   0  0  0  0  0  0  0  0  0  0  0  0
    3.5432   -0.7235   -0.7600 C   0  0  1  0  0  0  0  0  0  0  0  0
    4.9213   -1.2237   -0.5499 N   0  0  0  0  0  0  0  0  0  0  0  0
    5.9637   -0.2438   -0.9228 C   0  0  1  0  0  0  0  0  0  0  0  0
    6.0290    0.8388    0.1299 C   0  0  0  0  0  0  0  0  0  0  0  0
    6.8677    0.7900    1.1878 C   0  0  0  0  0  0  0  0  0  0  0  0
    6.8198    1.9092    2.2032 C   0  0  0  0  0  0  0  0  0  0  0  0
    7.0936    3.1404    1.5910 O   0  0  0  0  0  0  0  0  0  0  0  0
    7.9554   -0.2687    1.3124 C   0  0  1  0  0  0  0  0  0  0  0  0
    7.9528   -0.7802    2.6206 O   0  0  0  0  0  0  0  0  0  0  0  0
    7.8130   -1.4351    0.3078 C   0  0  2  0  0  0  0  0  0  0  0  0
    9.0545   -2.0813    0.1812 O   0  0  0  0  0  0  0  0  0  0  0  0
    7.3501   -0.9151   -1.0636 C   0  0  1  0  0  0  0  0  0  0  0  0
    7.3034   -1.9714   -1.9887 O   0  0  0  0  0  0  0  0  0  0  0  0
    2.9081   -1.2852   -2.0564 C   0  0  2  0  0  0  0  0  0  0  0  0
    3.6712   -0.9519   -3.1891 O   0  0  0  0  0  0  0  0  0  0  0  0
    1.4408   -0.8004   -2.2173 C   0  0  1  0  0  0  0  0  0  0  0  0
    0.6715   -1.8161   -2.8101 O   0  0  0  0  0  0  0  0  0  0  0  0
   -1.5009    1.6879   -0.2601 C   0  0  2  0  0  0  0  0  0  0  0  0
   -1.4052    2.5378    0.8557 O   0  0  0  0  0  0  0  0  0  0  0  0
   -2.9137    1.7982   -0.8511 C   0  0  1  0  0  0  0  0  0  0  0  0
   -2.9544    1.0962   -2.0698 O   0  0  0  0  0  0  0  0  0  0  0  0
   -7.2599    1.4713   -0.2604 C   0  0  2  0  0  0  0  0  0  0  0  0
   -6.7316    2.7742   -0.1989 O   0  0  0  0  0  0  0  0  0  0  0  0
   -8.5800    1.4292    0.5538 C   0  0  1  0  0  0  0  0  0  0  0  0
   -8.3420    1.5894    1.9309 O   0  0  0  0  0  0  0  0  0  0  0  0
   -9.5580    2.4685    0.0677 C   0  0  0  0  0  0  0  0  0  0  0  0
   -9.9923    2.4217   -1.0724 O   0  0  0  0  0  0  0  0  0  0  0  0
   -7.5497   -1.1470    0.8448 H   0  0  0  0  0  0  0  0  0  0  0  0
   -6.0217   -2.6698    1.0416 H   0  0  0  0  0  0  0  0  0  0  0  0
   -6.2032   -1.1758   -1.9424 H   0  0  0  0  0  0  0  0  0  0  0  0
   -6.9341   -2.6502   -1.2184 H   0  0  0  0  0  0  0  0  0  0  0  0
   -8.3679   -1.4591   -2.5362 H   0  0  0  0  0  0  0  0  0  0  0  0
   -6.0062    0.6837    1.3254 H   0  0  0  0  0  0  0  0  0  0  0  0
   -4.3559    2.1281    0.7017 H   0  0  0  0  0  0  0  0  0  0  0  0
   -2.9308   -1.0134   -0.3538 H   0  0  0  0  0  0  0  0  0  0  0  0
   -1.7108   -1.2412    2.4631 H   0  0  0  0  0  0  0  0  0  0  0  0
   -3.1494   -2.1368    1.8480 H   0  0  0  0  0  0  0  0  0  0  0  0
   -1.1859   -3.3003    1.6669 H   0  0  0  0  0  0  0  0  0  0  0  0
   -0.5198    0.2577    1.0537 H   0  0  0  0  0  0  0  0  0  0  0  0
    1.1626    0.6325   -0.6183 H   0  0  0  0  0  0  0  0  0  0  0  0
    3.0218   -2.1285    0.8086 H   0  0  0  0  0  0  0  0  0  0  0  0
    2.4995    0.8560    1.3475 H   0  0  0  0  0  0  0  0  0  0  0  0
    2.1923   -0.5099    2.4845 H   0  0  0  0  0  0  0  0  0  0  0  0
    3.8765   -0.1384    1.9633 H   0  0  0  0  0  0  0  0  0  0  0  0
    3.5298    0.3878   -0.8409 H   0  0  0  0  0  0  0  0  0  0  0  0
    5.0545   -2.1253   -1.0638 H   0  0  0  0  0  0  0  0  0  0  0  0
    5.7174    0.2278   -1.8993 H   0  0  0  0  0  0  0  0  0  0  0  0
    5.3124    1.6529    0.0604 H   0  0  0  0  0  0  0  0  0  0  0  0
    7.5415    1.7333    3.0323 H   0  0  0  0  0  0  0  0  0  0  0  0
    5.8049    1.9482    2.6529 H   0  0  0  0  0  0  0  0  0  0  0  0
    8.0669    3.1476    1.3941 H   0  0  0  0  0  0  0  0  0  0  0  0
    8.9219    0.2533    1.1169 H   0  0  0  0  0  0  0  0  0  0  0  0
    8.8480   -1.1808    2.7755 H   0  0  0  0  0  0  0  0  0  0  0  0
    7.0551   -2.1528    0.7047 H   0  0  0  0  0  0  0  0  0  0  0  0
    8.8704   -3.0075   -0.1257 H   0  0  0  0  0  0  0  0  0  0  0  0
    8.0881   -0.1558   -1.4181 H   0  0  0  0  0  0  0  0  0  0  0  0
    7.2095   -1.5599   -2.8873 H   0  0  0  0  0  0  0  0  0  0  0  0
    2.9002   -2.3955   -1.9719 H   0  0  0  0  0  0  0  0  0  0  0  0
    3.6965    0.0387   -3.2525 H   0  0  0  0  0  0  0  0  0  0  0  0
    1.4032    0.1098   -2.8612 H   0  0  0  0  0  0  0  0  0  0  0  0
    0.9338   -1.8503   -3.7672 H   0  0  0  0  0  0  0  0  0  0  0  0
   -0.7771    2.0300   -1.0372 H   0  0  0  0  0  0  0  0  0  0  0  0
   -0.4372    2.6824    1.0243 H   0  0  0  0  0  0  0  0  0  0  0  0
   -3.1251    2.8779   -1.0427 H   0  0  0  0  0  0  0  0  0  0  0  0
   -3.6945    1.4866   -2.6045 H   0  0  0  0  0  0  0  0  0  0  0  0
   -7.5052    1.2333   -1.3212 H   0  0  0  0  0  0  0  0  0  0  0  0
   -6.2086    2.9204   -1.0305 H   0  0  0  0  0  0  0  0  0  0  0  0
   -9.0718    0.4462    0.4075 H   0  0  0  0  0  0  0  0  0  0  0  0
   -7.9214    2.4791    2.0647 H   0  0  0  0  0  0  0  0  0  0  0  0
   -9.8934    3.2592    0.7315 H   0  0  0  0  0  0  0  0  0  0  0  0
  1  2  1  0
  1  3  1  0
  3  4  1  0
  1  5  1  0
  5  6  1  0
  6  7  1  0
  7  8  1  0
  8  9  1  0
  9 10  1  0
 10 11  1  0
  9 12  1  0
 12 13  1  0
 13 14  1  0
 14 15  1  0
 15 16  1  0
 16 17  1  0
 16 18  1  0
 18 19  1  0
 19 20  1  0
 20 21  1  0
 21 22  2  0
 22 23  1  0
 23 24  1  0
 22 25  1  0
 25 26  1  0
 25 27  1  0
 27 28  1  0
 27 29  1  0
 29 30  1  0
 18 31  1  0
 31 32  1  0
 31 33  1  0
 33 34  1  0
 12 35  1  0
 35 36  1  0
 35 37  1  0
 37 38  1  0
  5 39  1  0
 39 40  1  0
 39 41  1  0
 41 42  1  0
 41 43  1  0
 43 44  2  0
 37  7  1  0
 33 14  1  0
 29 20  1  0
  1 45  1  1
  2 46  1  0
  3 47  1  0
  3 48  1  0
  4 49  1  0
  5 50  1  1
  7 51  1  1
  9 52  1  6
 10 53  1  0
 10 54  1  0
 11 55  1  0
 12 56  1  1
 14 57  1  1
 16 58  1  1
 17 59  1  0
 17 60  1  0
 17 61  1  0
 18 62  1  6
 19 63  1  0
 20 64  1  6
 21 65  1  0
 23 66  1  0
 23 67  1  0
 24 68  1  0
 25 69  1  6
 26 70  1  0
 27 71  1  1
 28 72  1  0
 29 73  1  6
 30 74  1  0
 31 75  1  1
 32 76  1  0
 33 77  1  6
 34 78  1  0
 35 79  1  6
 36 80  1  0
 37 81  1  6
 38 82  1  0
 39 83  1  6
 40 84  1  0
 41 85  1  1
 42 86  1  0
 43 87  1  0
M  END
$$$$
