
     RDKit          3D

 62 64  0  0  0  0  0  0  0  0999 V2000
   -3.3069   -0.2950    0.0231 C   0  0  2  0  0  0  0  0  0  0  0  0
   -4.5962    0.5476    0.0926 C   0  0  0  0  0  0  0  0  0  0  0  0
   -5.8073   -0.2448   -0.3320 C   0  0  0  0  0  0  0  0  0  0  0  0
   -6.3450   -0.0877   -1.6209 C   0  0  0  0  0  0  0  0  0  0  0  0
   -7.4464   -0.8499   -2.0221 C   0  0  0  0  0  0  0  0  0  0  0  0
   -8.0150   -1.7761   -1.1435 C   0  0  0  0  0  0  0  0  0  0  0  0
   -7.4825   -1.9422    0.1379 C   0  0  0  0  0  0  0  0  0  0  0  0
   -6.3815   -1.1817    0.5434 C   0  0  0  0  0  0  0  0  0  0  0  0
   -2.1706    0.4744    0.5382 N   0  0  0  0  0  0  0  0  0  0  0  0
   -0.9168   -0.1440    0.8642 C   0  0  0  0  0  0  0  0  0  0  0  0
   -0.8011   -1.3989    0.8068 O   0  0  0  0  0  0  0  0  0  0  0  0
    0.2581    0.7165    1.2616 C   0  0  2  0  0  0  0  0  0  0  0  0
    0.7811    1.5299    0.0586 C   0  0  0  0  0  0  0  0  0  0  0  0
    1.9632    2.3876    0.4345 C   0  0  0  0  0  0  0  0  0  0  0  0
    1.7754    3.5507    1.2002 C   0  0  0  0  0  0  0  0  0  0  0  0
    2.8712    4.3379    1.5667 C   0  0  0  0  0  0  0  0  0  0  0  0
    4.1605    3.9707    1.1724 C   0  0  0  0  0  0  0  0  0  0  0  0
    4.3564    2.8150    0.4121 C   0  0  0  0  0  0  0  0  0  0  0  0
    3.2642    2.0223    0.0462 C   0  0  0  0  0  0  0  0  0  0  0  0
    1.3227   -0.0743    1.8988 N   0  0  0  0  0  0  0  0  0  0  0  0
    2.1574   -1.0242    1.2207 C   0  0  0  0  0  0  0  0  0  0  0  0
    1.9257   -1.3429    0.0225 O   0  0  0  0  0  0  0  0  0  0  0  0
    3.2359   -1.5922    1.9068 O   0  0  0  0  0  0  0  0  0  0  0  0
    4.2145   -2.4162    1.2777 C   0  0  0  0  0  0  0  0  0  0  0  0
    5.1167   -1.5796    0.4125 C   0  0  0  0  0  0  0  0  0  0  0  0
    6.0695   -0.7349    1.0048 C   0  0  0  0  0  0  0  0  0  0  0  0
    6.8896    0.0695    0.2079 C   0  0  0  0  0  0  0  0  0  0  0  0
    6.7541    0.0473   -1.1828 C   0  0  0  0  0  0  0  0  0  0  0  0
    5.8002   -0.7819   -1.7790 C   0  0  0  0  0  0  0  0  0  0  0  0
    4.9825   -1.5931   -0.9860 C   0  0  0  0  0  0  0  0  0  0  0  0
   -3.0160   -0.7292   -1.3974 C   0  0  0  0  0  0  0  0  0  0  0  0
   -2.8125    0.1147   -2.2581 O   0  0  0  0  0  0  0  0  0  0  0  0
   -2.9522   -2.1852   -1.7693 C   0  0  0  0  0  0  0  0  0  0  0  0
   -3.9435   -2.4854   -2.7129 O   0  0  0  0  0  0  0  0  0  0  0  0
   -3.4518   -1.1838    0.6765 H   0  0  0  0  0  0  0  0  0  0  0  0
   -4.7456    0.8966    1.1380 H   0  0  0  0  0  0  0  0  0  0  0  0
   -4.4896    1.4594   -0.5363 H   0  0  0  0  0  0  0  0  0  0  0  0
   -5.9078    0.6180   -2.3163 H   0  0  0  0  0  0  0  0  0  0  0  0
   -7.8564   -0.7258   -3.0161 H   0  0  0  0  0  0  0  0  0  0  0  0
   -8.8661   -2.3668   -1.4565 H   0  0  0  0  0  0  0  0  0  0  0  0
   -7.9213   -2.6625    0.8162 H   0  0  0  0  0  0  0  0  0  0  0  0
   -5.9735   -1.3248    1.5364 H   0  0  0  0  0  0  0  0  0  0  0  0
   -2.2573    1.5108    0.6476 H   0  0  0  0  0  0  0  0  0  0  0  0
   -0.1215    1.4413    2.0160 H   0  0  0  0  0  0  0  0  0  0  0  0
    1.0411    0.8572   -0.7861 H   0  0  0  0  0  0  0  0  0  0  0  0
   -0.0293    2.1932   -0.3154 H   0  0  0  0  0  0  0  0  0  0  0  0
    0.7814    3.8455    1.5131 H   0  0  0  0  0  0  0  0  0  0  0  0
    2.7208    5.2329    2.1564 H   0  0  0  0  0  0  0  0  0  0  0  0
    5.0077    4.5819    1.4555 H   0  0  0  0  0  0  0  0  0  0  0  0
    5.3550    2.5355    0.1048 H   0  0  0  0  0  0  0  0  0  0  0  0
    3.4334    1.1280   -0.5402 H   0  0  0  0  0  0  0  0  0  0  0  0
    1.5280    0.1112    2.9064 H   0  0  0  0  0  0  0  0  0  0  0  0
    3.7187   -3.2216    0.6924 H   0  0  0  0  0  0  0  0  0  0  0  0
    4.8219   -2.9104    2.0653 H   0  0  0  0  0  0  0  0  0  0  0  0
    6.1745   -0.6990    2.0821 H   0  0  0  0  0  0  0  0  0  0  0  0
    7.6236    0.7176    0.6691 H   0  0  0  0  0  0  0  0  0  0  0  0
    7.3850    0.6757   -1.7979 H   0  0  0  0  0  0  0  0  0  0  0  0
    5.6925   -0.7944   -2.8559 H   0  0  0  0  0  0  0  0  0  0  0  0
    4.2438   -2.2260   -1.4615 H   0  0  0  0  0  0  0  0  0  0  0  0
   -1.9577   -2.3970   -2.2150 H   0  0  0  0  0  0  0  0  0  0  0  0
   -3.0603   -2.8392   -0.8748 H   0  0  0  0  0  0  0  0  0  0  0  0
   -4.7944   -2.5781   -2.2099 H   0  0  0  0  0  0  0  0  0  0  0  0
  1  2  1  0
  2  3  1  0
  3  4  2  0
  4  5  1  0
  5  6  2  0
  6  7  1  0
  7  8  2  0
  1  9  1  0
  9 10  1  0
 10 11  2  0
 10 12  1  0
 12 13  1  0
 13 14  1  0
 14 15  2  0
 15 16  1  0
 16 17  2  0
 17 18  1  0
 18 19  2  0
 12 20  1  0
 20 21  1  0
 21 22  2  0
 21 23  1  0
 23 24  1  0
 24 25  1  0
 25 26  2  0
 26 27  1  0
 27 28  2  0
 28 29  1  0
 29 30  2  0
  1 31  1  0
 31 32  2  0
 31 33  1  0
 33 34  1  0
  8  3  1  0
 19 14  1  0
 30 25  1  0
  1 35  1  1
  2 36  1  0
  2 37  1  0
  4 38  1  0
  5 39  1  0
  6 40  1  0
  7 41  1  0
  8 42  1  0
  9 43  1  0
 12 44  1  1
 13 45  1  0
 13 46  1  0
 15 47  1  0
 16 48  1  0
 17 49  1  0
 18 50  1  0
 19 51  1  0
 20 52  1  0
 24 53  1  0
 24 54  1  0
 26 55  1  0
 27 56  1  0
 28 57  1  0
 29 58  1  0
 30 59  1  0
 33 60  1  0
 33 61  1  0
 34 62  1  0
M  END
$$$$
