
     RDKit          3D

 39 34  0  0  0  0  0  0  0  0999 V2000
    0.0000    0.0000    0.0000 Ca  0  0  0  0  0 15  0  0  0  0  0  0
    0.0000    0.0000    0.0000 Ca  0  0  0  0  0 15  0  0  0  0  0  0
    0.0000    0.0000    0.0000 Ca  0  0  0  0  0 15  0  0  0  0  0  0
   -0.4956    0.1207   -1.6226 O   0  0  0  0  0  0  0  0  0  0  0  0
   -0.0826   -0.3195   -0.3473 C   0  0  0  0  0  0  0  0  0  0  0  0
    1.4449   -0.5672   -0.3952 C   0  0  0  0  0  0  0  0  0  0  0  0
    2.2188    0.6404   -0.8383 C   0  0  0  0  0  0  0  0  0  0  0  0
    2.3133    0.9499   -2.1893 O   0  0  0  0  0  1  0  0  0  0  0  0
    2.7665    1.3903    0.0122 O   0  0  0  0  0  0  0  0  0  0  0  0
   -0.4171    0.7596    0.7239 C   0  0  0  0  0  0  0  0  0  0  0  0
   -1.8918    0.9898    0.8919 C   0  0  0  0  0  0  0  0  0  0  0  0
   -2.6214    0.2158    1.7854 O   0  0  0  0  0  1  0  0  0  0  0  0
   -2.4779    1.8711    0.2095 O   0  0  0  0  0  0  0  0  0  0  0  0
   -0.7477   -1.6420   -0.0115 C   0  0  0  0  0  0  0  0  0  0  0  0
   -1.3872   -2.3786   -1.0021 O   0  0  0  0  0  1  0  0  0  0  0  0
   -0.6761   -2.1139    1.1550 O   0  0  0  0  0  0  0  0  0  0  0  0
    0.9024   -1.3047   -1.0457 O   0  0  0  0  0  0  0  0  0  0  0  0
    0.1503   -0.2809   -0.4327 C   0  0  0  0  0  0  0  0  0  0  0  0
   -1.3295   -0.7444   -0.3400 C   0  0  0  0  0  0  0  0  0  0  0  0
   -2.2501    0.2835    0.2536 C   0  0  0  0  0  0  0  0  0  0  0  0
   -2.8637    1.2243   -0.5640 O   0  0  0  0  0  1  0  0  0  0  0  0
   -2.4576    0.3082    1.4954 O   0  0  0  0  0  0  0  0  0  0  0  0
    0.7314    0.0073    0.9813 C   0  0  0  0  0  0  0  0  0  0  0  0
    2.2012    0.3095    0.9425 C   0  0  0  0  0  0  0  0  0  0  0  0
    2.6406    1.6233    0.8398 O   0  0  0  0  0  1  0  0  0  0  0  0
    3.0419   -0.6275    0.9729 O   0  0  0  0  0  0  0  0  0  0  0  0
    0.2362    0.9505   -1.3116 C   0  0  0  0  0  0  0  0  0  0  0  0
    0.0661    2.2214   -0.7726 O   0  0  0  0  0  1  0  0  0  0  0  0
    0.3976    0.8303   -2.5554 O   0  0  0  0  0  0  0  0  0  0  0  0
   -1.4865    0.1793   -1.6294 H   0  0  0  0  0  0  0  0  0  0  0  0
    1.6647   -1.3932   -1.1073 H   0  0  0  0  0  0  0  0  0  0  0  0
    1.8124   -0.8913    0.6042 H   0  0  0  0  0  0  0  0  0  0  0  0
    0.0554    1.7259    0.4442 H   0  0  0  0  0  0  0  0  0  0  0  0
    0.0076    0.4629    1.7079 H   0  0  0  0  0  0  0  0  0  0  0  0
    0.8507   -2.1128   -0.4699 H   0  0  0  0  0  0  0  0  0  0  0  0
   -1.3940   -1.6737    0.2679 H   0  0  0  0  0  0  0  0  0  0  0  0
   -1.6978   -1.0031   -1.3570 H   0  0  0  0  0  0  0  0  0  0  0  0
    0.5688   -0.8745    1.6394 H   0  0  0  0  0  0  0  0  0  0  0  0
    0.2055    0.8633    1.4559 H   0  0  0  0  0  0  0  0  0  0  0  0
  4  5  1  0
  5  6  1  0
  6  7  1  0
  7  8  1  0
  7  9  2  0
  5 10  1  0
 10 11  1  0
 11 12  1  0
 11 13  2  0
  5 14  1  0
 14 15  1  0
 14 16  2  0
 17 18  1  0
 18 19  1  0
 19 20  1  0
 20 21  1  0
 20 22  2  0
 18 23  1  0
 23 24  1  0
 24 25  1  0
 24 26  2  0
 18 27  1  0
 27 28  1  0
 27 29  2  0
  4 30  1  0
  6 31  1  0
  6 32  1  0
 10 33  1  0
 10 34  1  0
 17 35  1  0
 19 36  1  0
 19 37  1  0
 23 38  1  0
 23 39  1  0
M  CHG  8   1   2   2   2   3   2   8  -1  12  -1  15  -1  21  -1  25  -1
M  CHG  1  28  -1
M  END
$$$$
