
     RDKit          3D

 66 66  0  0  0  0  0  0  0  0999 V2000
   -1.8181   -0.4165   -0.3480 C   0  0  2  0  0  0  0  0  0  0  0  0
   -2.6046    0.1478   -1.5480 C   0  0  0  0  0  0  0  0  0  0  0  0
   -4.1024    0.3117   -1.2350 C   0  0  0  0  0  0  0  0  0  0  0  0
   -4.8627    1.0271   -2.3586 C   0  0  0  0  0  0  0  0  0  0  0  0
   -4.9483    0.1751   -3.5554 N   0  0  0  0  0  0  0  0  0  0  0  0
   -5.9743    0.6626   -4.4987 C   0  0  0  0  0  0  0  0  0  0  0  0
   -5.6055    0.2890   -5.8673 N   0  0  0  0  0  0  0  0  0  0  0  0
   -7.2634    0.0509   -4.1696 N   0  0  0  0  0  0  0  0  0  0  0  0
   -0.3796   -0.3917   -0.6293 N   0  0  0  0  0  0  0  0  0  0  0  0
    0.5980   -0.5907    0.4025 C   0  0  0  0  0  0  0  0  0  0  0  0
    0.2317   -0.7363    1.6015 O   0  0  0  0  0  0  0  0  0  0  0  0
    2.0661   -0.6627    0.0532 C   0  0  1  0  0  0  0  0  0  0  0  0
    2.8722   -0.0322    1.1070 N   0  0  0  0  0  0  0  0  0  0  0  0
    2.8113    1.3770    1.3739 C   0  0  0  0  0  0  0  0  0  0  0  0
    2.0554    2.1231    0.6938 O   0  0  0  0  0  0  0  0  0  0  0  0
    3.6830    1.9792    2.4342 C   0  0  0  0  0  0  0  0  0  0  0  0
    5.0987    2.2177    1.8906 C   0  0  0  0  0  0  0  0  0  0  0  0
    6.0052    2.9682    2.8920 C   0  0  0  0  0  0  0  0  0  0  0  0
    7.3039    3.4032    2.2005 C   0  0  0  0  0  0  0  0  0  0  0  0
    6.3336    2.1095    4.1230 C   0  0  0  0  0  0  0  0  0  0  0  0
    2.5365   -2.1218   -0.2147 C   0  0  0  0  0  0  0  0  0  0  0  0
    2.2106   -3.0887    0.9377 C   0  0  0  0  0  0  0  0  0  0  0  0
    1.9647   -2.6642   -1.5330 C   0  0  0  0  0  0  0  0  0  0  0  0
   -2.2449   -1.8354   -0.0469 C   0  0  0  0  0  0  0  0  0  0  0  0
   -1.9249   -2.7547   -0.8485 O   0  0  0  0  0  0  0  0  0  0  0  0
   -3.0440   -2.1776    1.1436 C   0  0  0  0  0  0  0  0  0  0  0  0
   -3.4250   -3.4413    1.4344 N   0  0  0  0  0  0  0  0  0  0  0  0
   -4.1581   -3.5058    2.5780 C   0  0  0  0  0  0  0  0  0  0  0  0
   -4.3711   -2.2887    3.2128 C   0  0  0  0  0  0  0  0  0  0  0  0
   -3.6119   -1.0964    2.3041 S   0  0  0  0  0  0  0  0  0  0  0  0
   -2.0057    0.2482    0.5223 H   0  0  0  0  0  0  0  0  0  0  0  0
   -2.1827    1.1433   -1.8098 H   0  0  0  0  0  0  0  0  0  0  0  0
   -2.4703   -0.5225   -2.4247 H   0  0  0  0  0  0  0  0  0  0  0  0
   -4.2148    0.9108   -0.3049 H   0  0  0  0  0  0  0  0  0  0  0  0
   -4.5669   -0.6828   -1.0587 H   0  0  0  0  0  0  0  0  0  0  0  0
   -5.8779    1.2623   -1.9721 H   0  0  0  0  0  0  0  0  0  0  0  0
   -4.3643    1.9924   -2.6038 H   0  0  0  0  0  0  0  0  0  0  0  0
   -4.0126    0.2117   -4.0234 H   0  0  0  0  0  0  0  0  0  0  0  0
   -6.0666    1.7756   -4.4485 H   0  0  0  0  0  0  0  0  0  0  0  0
   -6.3512    0.6306   -6.5166 H   0  0  0  0  0  0  0  0  0  0  0  0
   -4.7409    0.8160   -6.1301 H   0  0  0  0  0  0  0  0  0  0  0  0
   -7.5522    0.3586   -3.2141 H   0  0  0  0  0  0  0  0  0  0  0  0
   -7.9866    0.4343   -4.8209 H   0  0  0  0  0  0  0  0  0  0  0  0
   -0.0481   -0.2557   -1.6117 H   0  0  0  0  0  0  0  0  0  0  0  0
    2.2337   -0.0803   -0.8803 H   0  0  0  0  0  0  0  0  0  0  0  0
    3.5654   -0.6003    1.6444 H   0  0  0  0  0  0  0  0  0  0  0  0
    3.2407    2.9412    2.7740 H   0  0  0  0  0  0  0  0  0  0  0  0
    3.7127    1.2871    3.3013 H   0  0  0  0  0  0  0  0  0  0  0  0
    5.0146    2.8235    0.9604 H   0  0  0  0  0  0  0  0  0  0  0  0
    5.5631    1.2440    1.6175 H   0  0  0  0  0  0  0  0  0  0  0  0
    5.4821    3.8886    3.2348 H   0  0  0  0  0  0  0  0  0  0  0  0
    7.0775    4.0659    1.3380 H   0  0  0  0  0  0  0  0  0  0  0  0
    7.9454    3.9716    2.9076 H   0  0  0  0  0  0  0  0  0  0  0  0
    7.8684    2.5183    1.8351 H   0  0  0  0  0  0  0  0  0  0  0  0
    7.0477    2.6442    4.7851 H   0  0  0  0  0  0  0  0  0  0  0  0
    6.7869    1.1420    3.8178 H   0  0  0  0  0  0  0  0  0  0  0  0
    5.4190    1.9108    4.7183 H   0  0  0  0  0  0  0  0  0  0  0  0
    3.6433   -2.1007   -0.3303 H   0  0  0  0  0  0  0  0  0  0  0  0
    2.5935   -2.7009    1.9039 H   0  0  0  0  0  0  0  0  0  0  0  0
    1.1149   -3.2494    1.0251 H   0  0  0  0  0  0  0  0  0  0  0  0
    2.6915   -4.0726    0.7514 H   0  0  0  0  0  0  0  0  0  0  0  0
    0.8607   -2.7650   -1.4751 H   0  0  0  0  0  0  0  0  0  0  0  0
    2.3983   -3.6628   -1.7541 H   0  0  0  0  0  0  0  0  0  0  0  0
    2.2209   -1.9855   -2.3742 H   0  0  0  0  0  0  0  0  0  0  0  0
   -4.5443   -4.4418    2.9584 H   0  0  0  0  0  0  0  0  0  0  0  0
   -4.9272   -2.1382    4.1281 H   0  0  0  0  0  0  0  0  0  0  0  0
  1  2  1  0
  2  3  1  0
  3  4  1  0
  4  5  1  0
  5  6  1  0
  6  7  1  0
  6  8  1  0
  1  9  1  0
  9 10  1  0
 10 11  2  0
 10 12  1  0
 12 13  1  0
 13 14  1  0
 14 15  2  0
 14 16  1  0
 16 17  1  0
 17 18  1  0
 18 19  1  0
 18 20  1  0
 12 21  1  0
 21 22  1  0
 21 23  1  0
  1 24  1  0
 24 25  2  0
 24 26  1  0
 26 27  2  0
 27 28  1  0
 28 29  2  0
 29 30  1  0
 30 26  1  0
  1 31  1  1
  2 32  1  0
  2 33  1  0
  3 34  1  0
  3 35  1  0
  4 36  1  0
  4 37  1  0
  5 38  1  0
  6 39  1  0
  7 40  1  0
  7 41  1  0
  8 42  1  0
  8 43  1  0
  9 44  1  0
 12 45  1  6
 13 46  1  0
 16 47  1  0
 16 48  1  0
 17 49  1  0
 17 50  1  0
 18 51  1  0
 19 52  1  0
 19 53  1  0
 19 54  1  0
 20 55  1  0
 20 56  1  0
 20 57  1  0
 21 58  1  0
 22 59  1  0
 22 60  1  0
 22 61  1  0
 23 62  1  0
 23 63  1  0
 23 64  1  0
 28 65  1  0
 29 66  1  0
M  END
$$$$
