
     RDKit          3D

 45 47  0  0  0  0  0  0  0  0999 V2000
   -5.4367    3.3190   -0.0183 C   0  0  0  0  0  0  0  0  0  0  0  0
   -4.1855    2.7387   -0.3722 O   0  0  0  0  0  0  0  0  0  0  0  0
   -3.8652    1.3831   -0.2052 C   0  0  0  0  0  0  0  0  0  0  0  0
   -2.5954    0.9482   -0.5957 C   0  0  0  0  0  0  0  0  0  0  0  0
   -2.2171   -0.3972   -0.4579 C   0  0  0  0  0  0  0  0  0  0  0  0
   -0.8250   -0.8182   -0.8681 C   0  0  0  0  0  0  0  0  0  0  0  0
    0.1584   -0.4979    0.1776 N   0  0  0  0  0  0  0  0  0  0  0  0
    0.0353   -1.1368    1.4926 C   0  0  0  0  0  0  0  0  0  0  0  0
    1.4044    0.1258   -0.1943 C   0  0  0  0  0  0  0  0  0  0  0  0
    2.6339   -0.4825    0.1086 C   0  0  0  0  0  0  0  0  0  0  0  0
    3.8438    0.1372   -0.2585 C   0  0  0  0  0  0  0  0  0  0  0  0
    3.7811    1.3727   -0.9399 C   0  0  0  0  0  0  0  0  0  0  0  0
    2.5800    1.9397   -1.2221 N   0  0  0  0  0  0  0  0  0  0  0  0
    1.4077    1.3530   -0.8700 C   0  0  0  0  0  0  0  0  0  0  0  0
    4.9214    2.0013   -1.3198 N   0  0  0  0  0  0  0  0  0  0  0  0
    6.1384    1.4631   -1.0572 C   0  0  0  0  0  0  0  0  0  0  0  0
    7.3223    2.1428   -1.4679 N   0  0  0  0  0  0  0  0  0  0  0  0
    6.2285    0.2776   -0.4022 N   0  0  0  0  0  0  0  0  0  0  0  0
    5.1251   -0.4038    0.0079 C   0  0  0  0  0  0  0  0  0  0  0  0
    5.3156   -1.6444    0.6999 N   0  0  0  0  0  0  0  0  0  0  0  0
   -3.1256   -1.3236    0.0968 C   0  0  0  0  0  0  0  0  0  0  0  0
   -2.7280   -2.6624    0.2511 O   0  0  0  0  0  0  0  0  0  0  0  0
   -3.5375   -3.6870    0.8182 C   0  0  0  0  0  0  0  0  0  0  0  0
   -4.4043   -0.8826    0.4875 C   0  0  0  0  0  0  0  0  0  0  0  0
   -4.7708    0.4561    0.3374 C   0  0  0  0  0  0  0  0  0  0  0  0
   -5.4146    4.4019   -0.2574 H   0  0  0  0  0  0  0  0  0  0  0  0
   -5.6190    3.1988    1.0705 H   0  0  0  0  0  0  0  0  0  0  0  0
   -6.2558    2.8434   -0.5982 H   0  0  0  0  0  0  0  0  0  0  0  0
   -1.9018    1.6663   -1.0132 H   0  0  0  0  0  0  0  0  0  0  0  0
   -0.7820   -1.9060   -1.0885 H   0  0  0  0  0  0  0  0  0  0  0  0
   -0.5659   -0.3096   -1.8227 H   0  0  0  0  0  0  0  0  0  0  0  0
   -0.9823   -0.9827    1.9057 H   0  0  0  0  0  0  0  0  0  0  0  0
    0.7543   -0.6934    2.2144 H   0  0  0  0  0  0  0  0  0  0  0  0
    0.2334   -2.2255    1.4015 H   0  0  0  0  0  0  0  0  0  0  0  0
    2.6186   -1.4371    0.6090 H   0  0  0  0  0  0  0  0  0  0  0  0
    0.4783    1.8497   -1.1086 H   0  0  0  0  0  0  0  0  0  0  0  0
    8.2624    1.7344   -1.2687 H   0  0  0  0  0  0  0  0  0  0  0  0
    7.2604    3.0552   -1.9718 H   0  0  0  0  0  0  0  0  0  0  0  0
    6.2850   -2.0019    0.8513 H   0  0  0  0  0  0  0  0  0  0  0  0
    4.5370   -2.2149    1.0898 H   0  0  0  0  0  0  0  0  0  0  0  0
   -4.4577   -3.8261    0.2124 H   0  0  0  0  0  0  0  0  0  0  0  0
   -2.9674   -4.6384    0.8213 H   0  0  0  0  0  0  0  0  0  0  0  0
   -3.8026   -3.4283    1.8651 H   0  0  0  0  0  0  0  0  0  0  0  0
   -5.1246   -1.5677    0.9130 H   0  0  0  0  0  0  0  0  0  0  0  0
   -5.7607    0.7602    0.6492 H   0  0  0  0  0  0  0  0  0  0  0  0
  1  2  1  0
  2  3  1  0
  3  4  2  0
  4  5  1  0
  5  6  1  0
  6  7  1  0
  7  8  1  0
  7  9  1  0
  9 10  2  0
 10 11  1  0
 11 12  2  0
 12 13  1  0
 13 14  2  0
 12 15  1  0
 15 16  2  0
 16 17  1  0
 16 18  1  0
 18 19  2  0
 19 20  1  0
  5 21  2  0
 21 22  1  0
 22 23  1  0
 21 24  1  0
 24 25  2  0
 25  3  1  0
 14  9  1  0
 19 11  1  0
  1 26  1  0
  1 27  1  0
  1 28  1  0
  4 29  1  0
  6 30  1  0
  6 31  1  0
  8 32  1  0
  8 33  1  0
  8 34  1  0
 10 35  1  0
 14 36  1  0
 17 37  1  0
 17 38  1  0
 20 39  1  0
 20 40  1  0
 23 41  1  0
 23 42  1  0
 23 43  1  0
 24 44  1  0
 25 45  1  0
M  END
$$$$
