
     RDKit          3D

 72 73  0  0  0  0  0  0  0  0999 V2000
   -1.0869    2.5814   -3.0282 C   0  0  0  0  0  0  0  0  0  0  0  0
   -1.8033    2.9997   -1.7341 C   0  0  0  0  0  0  0  0  0  0  0  0
   -1.2979    4.3784   -1.2896 C   0  0  0  0  0  0  0  0  0  0  0  0
   -1.5869    1.9643   -0.6055 C   0  0  0  0  0  0  0  0  0  0  0  0
   -2.4378    0.6774   -0.7673 C   0  0  2  0  0  0  0  0  0  0  0  0
   -3.8732    0.9277   -0.5084 N   0  0  0  0  0  0  0  0  0  0  0  0
   -4.8763    0.7672   -1.9277 S   0  0  0  0  0  6  0  0  0  0  0  0
   -4.1051    1.0450   -3.1884 O   0  0  0  0  0  0  0  0  0  0  0  0
   -6.0070    1.7527   -1.8332 O   0  0  0  0  0  0  0  0  0  0  0  0
   -5.5772   -0.8734   -1.9989 C   0  0  0  0  0  0  0  0  0  0  0  0
   -4.5069   -1.9277   -2.0625 C   0  0  0  0  0  0  0  0  0  0  0  0
   -3.8809   -2.2282   -3.2837 C   0  0  0  0  0  0  0  0  0  0  0  0
   -2.9067   -3.2293   -3.3486 C   0  0  0  0  0  0  0  0  0  0  0  0
   -2.5462   -3.9319   -2.1954 C   0  0  0  0  0  0  0  0  0  0  0  0
   -3.1562   -3.6311   -0.9750 C   0  0  0  0  0  0  0  0  0  0  0  0
   -4.1302   -2.6303   -0.9055 C   0  0  0  0  0  0  0  0  0  0  0  0
   -1.9382   -0.3540    0.2149 C   0  0  0  0  0  0  0  0  0  0  0  0
   -2.4571   -0.4091    1.3639 O   0  0  0  0  0  0  0  0  0  0  0  0
   -0.8371   -1.2284   -0.1064 N   0  0  0  0  0  0  0  0  0  0  0  0
   -0.1706   -1.2743   -1.4003 C   0  0  0  0  0  0  0  0  0  0  0  0
    0.9444   -2.3027   -1.2607 C   0  0  0  0  0  0  0  0  0  0  0  0
    0.6356   -3.0894    0.0102 C   0  0  0  0  0  0  0  0  0  0  0  0
   -0.3070   -2.2085    0.8310 C   0  0  1  0  0  0  0  0  0  0  0  0
    0.4207   -1.5265    1.9617 C   0  0  0  0  0  0  0  0  0  0  0  0
    0.2482   -1.9415    3.1399 O   0  0  0  0  0  0  0  0  0  0  0  0
    1.3223   -0.4379    1.7055 N   0  0  0  0  0  0  0  0  0  0  0  0
    2.0902    0.2115    2.7652 C   0  0  0  0  0  0  0  0  0  0  0  0
    3.2802   -0.6663    3.1743 C   0  0  0  0  0  0  0  0  0  0  0  0
    4.0473   -0.1041    4.3840 C   0  0  0  0  0  0  0  0  0  0  0  0
    4.8026    1.1969    4.0884 C   0  0  0  0  0  0  0  0  0  0  0  0
    5.7830    0.9859    3.0261 N   0  0  0  0  0  0  0  0  0  0  0  0
    6.5841    1.8939    2.5492 C   0  0  0  0  0  0  0  0  0  0  0  0
    6.5786    3.2389    3.0458 N   0  0  0  0  0  0  0  0  0  0  0  0
    7.4895    1.5385    1.5046 N   0  0  0  0  0  0  0  0  0  0  0  0
    0.0066    2.4823   -2.8569 H   0  0  0  0  0  0  0  0  0  0  0  0
   -1.4744    1.6149   -3.4070 H   0  0  0  0  0  0  0  0  0  0  0  0
   -1.2549    3.3421   -3.8201 H   0  0  0  0  0  0  0  0  0  0  0  0
   -2.8890    3.1001   -1.9458 H   0  0  0  0  0  0  0  0  0  0  0  0
   -1.8543    4.7198   -0.3906 H   0  0  0  0  0  0  0  0  0  0  0  0
   -1.4599    5.1265   -2.0950 H   0  0  0  0  0  0  0  0  0  0  0  0
   -0.2138    4.3393   -1.0478 H   0  0  0  0  0  0  0  0  0  0  0  0
   -0.5058    1.7052   -0.5614 H   0  0  0  0  0  0  0  0  0  0  0  0
   -1.8305    2.4226    0.3793 H   0  0  0  0  0  0  0  0  0  0  0  0
   -2.2879    0.2584   -1.7795 H   0  0  0  0  0  0  0  0  0  0  0  0
   -4.0342    1.8794   -0.1057 H   0  0  0  0  0  0  0  0  0  0  0  0
   -6.2212   -1.0247   -1.1063 H   0  0  0  0  0  0  0  0  0  0  0  0
   -6.2303   -0.9467   -2.8946 H   0  0  0  0  0  0  0  0  0  0  0  0
   -4.1537   -1.6935   -4.1850 H   0  0  0  0  0  0  0  0  0  0  0  0
   -2.4289   -3.4585   -4.2922 H   0  0  0  0  0  0  0  0  0  0  0  0
   -1.7887   -4.7031   -2.2460 H   0  0  0  0  0  0  0  0  0  0  0  0
   -2.8732   -4.1730   -0.0822 H   0  0  0  0  0  0  0  0  0  0  0  0
   -4.5923   -2.4066    0.0479 H   0  0  0  0  0  0  0  0  0  0  0  0
    0.2514   -0.2805   -1.6601 H   0  0  0  0  0  0  0  0  0  0  0  0
   -0.8876   -1.5919   -2.1844 H   0  0  0  0  0  0  0  0  0  0  0  0
    1.9213   -1.7834   -1.1469 H   0  0  0  0  0  0  0  0  0  0  0  0
    0.9898   -2.9719   -2.1474 H   0  0  0  0  0  0  0  0  0  0  0  0
    1.5677   -3.3559    0.5566 H   0  0  0  0  0  0  0  0  0  0  0  0
    0.1098   -4.0303   -0.2653 H   0  0  0  0  0  0  0  0  0  0  0  0
   -1.1380   -2.8285    1.2357 H   0  0  0  0  0  0  0  0  0  0  0  0
    1.4057   -0.0573    0.7366 H   0  0  0  0  0  0  0  0  0  0  0  0
    1.4309    0.4124    3.6376 H   0  0  0  0  0  0  0  0  0  0  0  0
    2.4625    1.1860    2.3849 H   0  0  0  0  0  0  0  0  0  0  0  0
    3.9652   -0.7934    2.3082 H   0  0  0  0  0  0  0  0  0  0  0  0
    2.9074   -1.6763    3.4491 H   0  0  0  0  0  0  0  0  0  0  0  0
    4.7805   -0.8681    4.7233 H   0  0  0  0  0  0  0  0  0  0  0  0
    3.3399    0.0683    5.2242 H   0  0  0  0  0  0  0  0  0  0  0  0
    4.0898    1.9975    3.7987 H   0  0  0  0  0  0  0  0  0  0  0  0
    5.3276    1.5157    5.0152 H   0  0  0  0  0  0  0  0  0  0  0  0
    7.2316    3.9453    2.6402 H   0  0  0  0  0  0  0  0  0  0  0  0
    5.9416    3.5506    3.8109 H   0  0  0  0  0  0  0  0  0  0  0  0
    8.1428    2.2476    1.1042 H   0  0  0  0  0  0  0  0  0  0  0  0
    7.5088    0.5647    1.1275 H   0  0  0  0  0  0  0  0  0  0  0  0
  1  2  1  0
  2  3  1  0
  2  4  1  0
  4  5  1  0
  5  6  1  0
  6  7  1  0
  7  8  2  0
  7  9  2  0
  7 10  1  0
 10 11  1  0
 11 12  2  0
 12 13  1  0
 13 14  2  0
 14 15  1  0
 15 16  2  0
  5 17  1  0
 17 18  2  0
 17 19  1  0
 19 20  1  0
 20 21  1  0
 21 22  1  0
 22 23  1  0
 23 24  1  0
 24 25  2  0
 24 26  1  0
 26 27  1  0
 27 28  1  0
 28 29  1  0
 29 30  1  0
 30 31  1  0
 31 32  2  3
 32 33  1  0
 32 34  1  0
 16 11  1  0
 23 19  1  0
  1 35  1  0
  1 36  1  0
  1 37  1  0
  2 38  1  0
  3 39  1  0
  3 40  1  0
  3 41  1  0
  4 42  1  0
  4 43  1  0
  5 44  1  6
  6 45  1  0
 10 46  1  0
 10 47  1  0
 12 48  1  0
 13 49  1  0
 14 50  1  0
 15 51  1  0
 16 52  1  0
 20 53  1  0
 20 54  1  0
 21 55  1  0
 21 56  1  0
 22 57  1  0
 22 58  1  0
 23 59  1  1
 26 60  1  0
 27 61  1  0
 27 62  1  0
 28 63  1  0
 28 64  1  0
 29 65  1  0
 29 66  1  0
 30 67  1  0
 30 68  1  0
 33 69  1  0
 33 70  1  0
 34 71  1  0
 34 72  1  0
M  END
$$$$
