
     RDKit          3D

 65 68  0  0  0  0  0  0  0  0999 V2000
    0.0458   -0.5089   -1.1606 C   0  0  2  0  0  0  0  0  0  0  0  0
    0.4724   -1.1755   -2.4615 C   0  0  0  0  0  0  0  0  0  0  0  0
    2.0039   -1.3602   -2.3150 C   0  0  1  0  0  0  0  0  0  0  0  0
    2.7622   -0.6311   -3.4399 C   0  0  0  0  0  0  0  0  0  0  0  0
    2.3858   -0.8908   -0.8620 C   0  0  2  0  0  0  0  0  0  0  0  0
    2.7061    0.5145   -0.9530 O   0  0  0  0  0  0  0  0  0  0  0  0
    3.3694    1.3053   -0.0043 C   0  0  0  0  0  0  0  0  0  0  0  0
    3.7719    0.8219    1.0855 O   0  0  0  0  0  0  0  0  0  0  0  0
    3.5299    2.7668   -0.2687 C   0  0  0  0  0  0  0  0  0  0  0  0
    2.2350    3.5073    0.0455 C   0  0  0  0  0  0  0  0  0  0  0  0
    3.6409   -1.6614   -0.4012 C   0  0  0  0  0  0  0  0  0  0  0  0
    4.6874   -1.4502   -0.9948 O   0  0  0  0  0  0  0  0  0  0  0  0
    3.6955   -2.9263    0.8888 S   0  0  0  0  0  0  0  0  0  0  0  0
    4.6185   -1.9538    2.1217 C   0  0  0  0  0  0  0  0  0  0  0  0
    3.7399   -1.2474    2.9186 F   0  0  0  0  0  0  0  0  0  0  0  0
    1.0090   -1.0890   -0.1038 C   0  0  2  0  0  0  0  0  0  0  0  0
    0.7193   -2.6087    0.1711 C   0  0  0  0  0  0  0  0  0  0  0  0
    0.8071   -0.2708    1.2006 C   0  0  0  0  0  0  0  0  0  0  0  0
   -0.6712   -0.2627    1.6841 C   0  0  2  0  0  0  0  0  0  0  0  0
   -1.0406   -1.5370    2.1393 O   0  0  0  0  0  0  0  0  0  0  0  0
   -1.6540    0.2565    0.5742 C   0  0  1  0  0  0  0  0  0  0  0  0
   -1.2789    1.5742    0.3260 F   0  0  0  0  0  0  0  0  0  0  0  0
   -1.4561   -0.5413   -0.7672 C   0  0  1  0  0  0  0  0  0  0  0  0
   -2.3181    0.0665   -1.8956 C   0  0  0  0  0  0  0  0  0  0  0  0
   -3.7992    0.0909   -1.5213 C   0  0  2  0  0  0  0  0  0  0  0  0
   -4.5077    0.6812   -2.5567 F   0  0  0  0  0  0  0  0  0  0  0  0
   -3.9838    0.8209   -0.2068 C   0  0  0  0  0  0  0  0  0  0  0  0
   -4.8498    1.8469   -0.1160 C   0  0  0  0  0  0  0  0  0  0  0  0
   -5.0043    2.5959    1.1298 C   0  0  0  0  0  0  0  0  0  0  0  0
   -5.8330    3.5412    1.2024 O   0  0  0  0  0  0  0  0  0  0  0  0
   -4.1805    2.2530    2.2838 C   0  0  0  0  0  0  0  0  0  0  0  0
   -3.3247    1.2332    2.2258 C   0  0  0  0  0  0  0  0  0  0  0  0
   -3.1783    0.3172    1.0075 C   0  0  2  0  0  0  0  0  0  0  0  0
   -3.7723   -1.0522    1.4225 C   0  0  0  0  0  0  0  0  0  0  0  0
    0.2847    0.5736   -1.2965 H   0  0  0  0  0  0  0  0  0  0  0  0
   -0.0276   -2.1632   -2.5697 H   0  0  0  0  0  0  0  0  0  0  0  0
    0.1977   -0.5424   -3.3342 H   0  0  0  0  0  0  0  0  0  0  0  0
    2.2300   -2.4447   -2.4304 H   0  0  0  0  0  0  0  0  0  0  0  0
    3.8579   -0.7422   -3.3113 H   0  0  0  0  0  0  0  0  0  0  0  0
    2.5074    0.4501   -3.4600 H   0  0  0  0  0  0  0  0  0  0  0  0
    2.4865   -1.0710   -4.4219 H   0  0  0  0  0  0  0  0  0  0  0  0
    3.7914    2.9182   -1.3378 H   0  0  0  0  0  0  0  0  0  0  0  0
    4.3539    3.1788    0.3534 H   0  0  0  0  0  0  0  0  0  0  0  0
    1.4056    3.1203   -0.5853 H   0  0  0  0  0  0  0  0  0  0  0  0
    1.9689    3.3806    1.1168 H   0  0  0  0  0  0  0  0  0  0  0  0
    2.3656    4.5898   -0.1634 H   0  0  0  0  0  0  0  0  0  0  0  0
    5.3398   -1.2627    1.6389 H   0  0  0  0  0  0  0  0  0  0  0  0
    5.1892   -2.6546    2.7646 H   0  0  0  0  0  0  0  0  0  0  0  0
    1.0512   -2.9005    1.1876 H   0  0  0  0  0  0  0  0  0  0  0  0
    1.2169   -3.2770   -0.5591 H   0  0  0  0  0  0  0  0  0  0  0  0
   -0.3481   -2.8777    0.1356 H   0  0  0  0  0  0  0  0  0  0  0  0
    1.0903    0.7876    1.0435 H   0  0  0  0  0  0  0  0  0  0  0  0
    1.4611   -0.6665    2.0040 H   0  0  0  0  0  0  0  0  0  0  0  0
   -0.7077    0.4481    2.5397 H   0  0  0  0  0  0  0  0  0  0  0  0
   -0.5879   -1.6767    3.0119 H   0  0  0  0  0  0  0  0  0  0  0  0
   -1.7932   -1.5855   -0.6502 H   0  0  0  0  0  0  0  0  0  0  0  0
   -2.2072   -0.5403   -2.8201 H   0  0  0  0  0  0  0  0  0  0  0  0
   -1.9795    1.1011   -2.1264 H   0  0  0  0  0  0  0  0  0  0  0  0
   -4.1701   -0.9505   -1.4151 H   0  0  0  0  0  0  0  0  0  0  0  0
   -5.4358    2.1627   -0.9697 H   0  0  0  0  0  0  0  0  0  0  0  0
   -4.2706    2.8282    3.1972 H   0  0  0  0  0  0  0  0  0  0  0  0
   -2.7805    0.9956    3.1302 H   0  0  0  0  0  0  0  0  0  0  0  0
   -3.4251   -1.3676    2.4281 H   0  0  0  0  0  0  0  0  0  0  0  0
   -3.5315   -1.8568    0.7014 H   0  0  0  0  0  0  0  0  0  0  0  0
   -4.8803   -0.9815    1.4869 H   0  0  0  0  0  0  0  0  0  0  0  0
  1  2  1  0
  2  3  1  0
  3  4  1  0
  3  5  1  0
  5  6  1  6
  6  7  1  0
  7  8  2  0
  7  9  1  0
  9 10  1  0
  5 11  1  0
 11 12  2  0
 11 13  1  0
 13 14  1  0
 14 15  1  0
  5 16  1  0
 16 17  1  1
 16 18  1  0
 18 19  1  0
 19 20  1  0
 19 21  1  0
 21 22  1  6
 21 23  1  0
 23 24  1  0
 24 25  1  0
 25 26  1  0
 25 27  1  0
 27 28  2  0
 28 29  1  0
 29 30  2  0
 29 31  1  0
 31 32  2  0
 32 33  1  0
 33 34  1  1
 16  1  1  0
 33 21  1  0
 23  1  1  0
 33 27  1  0
  1 35  1  6
  2 36  1  0
  2 37  1  0
  3 38  1  1
  4 39  1  0
  4 40  1  0
  4 41  1  0
  9 42  1  0
  9 43  1  0
 10 44  1  0
 10 45  1  0
 10 46  1  0
 14 47  1  0
 14 48  1  0
 17 49  1  0
 17 50  1  0
 17 51  1  0
 18 52  1  0
 18 53  1  0
 19 54  1  1
 20 55  1  0
 23 56  1  1
 24 57  1  0
 24 58  1  0
 25 59  1  1
 28 60  1  0
 31 61  1  0
 32 62  1  0
 34 63  1  0
 34 64  1  0
 34 65  1  0
M  END
$$$$
