
     RDKit          3D

 31 32  0  0  0  0  0  0  0  0999 V2000
   -3.1604   -1.2783    0.8890 C   0  0  0  0  0  0  0  0  0  0  0  0
   -2.7320   -0.2447   -0.0521 N   0  0  0  0  0  0  0  0  0  0  0  0
   -3.7510    0.4710   -0.8178 C   0  0  0  0  0  0  0  0  0  0  0  0
   -1.3782   -0.2681   -0.5353 C   0  0  0  0  0  0  0  0  0  0  0  0
   -0.3159    0.2553    0.2401 C   0  0  0  0  0  0  0  0  0  0  0  0
   -0.5644    0.8525    1.4892 C   0  0  0  0  0  0  0  0  0  0  0  0
    0.4827    1.3642    2.2496 C   0  0  0  0  0  0  0  0  0  0  0  0
    1.7917    1.2956    1.7813 C   0  0  0  0  0  0  0  0  0  0  0  0
    2.0811    0.7175    0.5363 C   0  0  0  0  0  0  0  0  0  0  0  0
    1.0205    0.1927   -0.2519 C   0  0  0  0  0  0  0  0  0  0  0  0
    1.2498   -0.3884   -1.5167 C   0  0  0  0  0  0  0  0  0  0  0  0
    0.1924   -0.8910   -2.2732 C   0  0  0  0  0  0  0  0  0  0  0  0
   -1.1106   -0.8323   -1.7884 C   0  0  0  0  0  0  0  0  0  0  0  0
    3.7737    0.6677    0.0074 S   0  0  0  0  0  6  0  0  0  0  0  0
    4.2578   -0.9752   -0.2323 N   0  0  0  0  0  0  0  0  0  0  0  0
    3.9228    1.4356   -1.2759 O   0  0  0  0  0  0  0  0  0  0  0  0
    4.6673    1.2885    1.0453 O   0  0  0  0  0  0  0  0  0  0  0  0
   -3.9587   -0.8826    1.5517 H   0  0  0  0  0  0  0  0  0  0  0  0
   -3.5493   -2.1548    0.3293 H   0  0  0  0  0  0  0  0  0  0  0  0
   -2.3111   -1.6060    1.5262 H   0  0  0  0  0  0  0  0  0  0  0  0
   -3.3050    1.3532   -1.3253 H   0  0  0  0  0  0  0  0  0  0  0  0
   -4.1925   -0.2046   -1.5805 H   0  0  0  0  0  0  0  0  0  0  0  0
   -4.5538    0.8310   -0.1402 H   0  0  0  0  0  0  0  0  0  0  0  0
   -1.5690    0.9324    1.8842 H   0  0  0  0  0  0  0  0  0  0  0  0
    0.2780    1.8192    3.2103 H   0  0  0  0  0  0  0  0  0  0  0  0
    2.5816    1.7017    2.3991 H   0  0  0  0  0  0  0  0  0  0  0  0
    2.2404   -0.4604   -1.9401 H   0  0  0  0  0  0  0  0  0  0  0  0
    0.3857   -1.3333   -3.2422 H   0  0  0  0  0  0  0  0  0  0  0  0
   -1.9173   -1.2384   -2.3857 H   0  0  0  0  0  0  0  0  0  0  0  0
    4.1695   -1.4570    0.6903 H   0  0  0  0  0  0  0  0  0  0  0  0
    5.2745   -0.9632   -0.4716 H   0  0  0  0  0  0  0  0  0  0  0  0
  1  2  1  0
  2  3  1  0
  2  4  1  0
  4  5  2  0
  5  6  1  0
  6  7  2  0
  7  8  1  0
  8  9  2  0
  9 10  1  0
 10 11  2  0
 11 12  1  0
 12 13  2  0
  9 14  1  0
 14 15  1  0
 14 16  2  0
 14 17  2  0
 13  4  1  0
 10  5  1  0
  1 18  1  0
  1 19  1  0
  1 20  1  0
  3 21  1  0
  3 22  1  0
  3 23  1  0
  6 24  1  0
  7 25  1  0
  8 26  1  0
 11 27  1  0
 12 28  1  0
 13 29  1  0
 15 30  1  0
 15 31  1  0
M  END
$$$$
