
     RDKit          3D

127132  0  0  0  0  0  0  0  0999 V2000
   -2.9859    6.3687    1.2229 C   0  0  0  0  0  0  0  0  0  0  0  0
   -2.3871    5.1361    0.8840 O   0  0  0  0  0  0  0  0  0  0  0  0
   -3.3636    4.1095    0.7633 C   0  0  1  0  0  0  0  0  0  0  0  0
   -3.2566    3.5509   -0.6345 C   0  0  0  0  0  0  0  0  0  0  0  0
   -3.3366    4.3102   -1.7355 C   0  0  0  0  0  0  0  0  0  0  0  0
   -3.1677    3.8276   -3.0521 O   0  0  0  0  0  0  0  0  0  0  0  0
   -2.8775    2.4856   -3.4791 C   0  0  1  0  0  0  0  0  0  0  0  0
   -4.0213    1.5081   -3.1593 C   0  0  0  0  0  0  0  0  0  0  0  0
   -2.6952    2.4679   -4.8997 O   0  0  0  0  0  0  0  0  0  0  0  0
   -1.5002    1.8357   -5.2349 C   0  0  0  0  0  0  0  0  0  0  0  0
   -0.7112    1.6462   -4.1420 C   0  0  0  0  0  0  0  0  0  0  0  0
   -1.5313    1.9985   -2.9952 C   0  0  0  0  0  0  0  0  0  0  0  0
   -1.2310    1.7307   -1.8036 O   0  0  0  0  0  0  0  0  0  0  0  0
    0.4578    0.8813   -4.1920 C   0  0  0  0  0  0  0  0  0  0  0  0
    0.7223    0.1280   -5.3727 C   0  0  0  0  0  0  0  0  0  0  0  0
   -0.0909    0.3645   -6.5341 C   0  0  0  0  0  0  0  0  0  0  0  0
    0.1393   -0.3458   -7.7130 O   0  0  0  0  0  0  0  0  0  0  0  0
   -1.1706    1.2927   -6.4765 C   0  0  0  0  0  0  0  0  0  0  0  0
   -2.0640    1.5492   -7.6595 C   0  0  0  0  0  0  0  0  0  0  0  0
    1.6988   -0.9092   -5.2802 C   0  0  0  0  0  0  0  0  0  0  0  0
    2.0542   -1.7414   -6.3458 O   0  0  0  0  0  0  0  0  0  0  0  0
    2.3224   -1.1700   -4.0476 C   0  0  0  0  0  0  0  0  0  0  0  0
    2.8700   -2.4690   -3.8049 N   0  0  0  0  0  0  0  0  0  0  0  0
    2.0190   -3.4211   -3.1539 C   0  0  0  0  0  0  0  0  0  0  0  0
    0.7943   -3.4767   -3.4517 O   0  0  0  0  0  0  0  0  0  0  0  0
    2.5410   -4.2816   -2.0798 C   0  0  0  0  0  0  0  0  0  0  0  0
    3.7297   -5.1520   -2.3681 C   0  0  0  0  0  0  0  0  0  0  0  0
    2.0324   -4.2496   -0.8331 C   0  0  0  0  0  0  0  0  0  0  0  0
    1.0046   -3.2816   -0.3728 C   0  0  0  0  0  0  0  0  0  0  0  0
    0.5702   -3.3154    0.8920 C   0  0  0  0  0  0  0  0  0  0  0  0
   -0.3503   -2.2634    1.4856 C   0  0  2  0  0  0  0  0  0  0  0  0
   -0.0853   -2.2208    3.0000 C   0  0  0  0  0  0  0  0  0  0  0  0
   -1.8306   -2.5804    1.1056 C   0  0  2  0  0  0  0  0  0  0  0  0
   -1.9767   -2.3827   -0.2798 O   0  0  0  0  0  0  0  0  0  0  0  0
   -2.9659   -1.7929    1.8603 C   0  0  1  0  0  0  0  0  0  0  0  0
   -3.2296   -2.3761    3.2640 C   0  0  0  0  0  0  0  0  0  0  0  0
   -2.8158   -0.2258    1.8194 C   0  0  1  0  0  0  0  0  0  0  0  0
   -2.7065    0.1850    0.4791 O   0  0  0  0  0  0  0  0  0  0  0  0
   -3.9771    0.5597    2.5498 C   0  0  1  0  0  0  0  0  0  0  0  0
   -3.7776    0.6239    4.0846 C   0  0  0  0  0  0  0  0  0  0  0  0
   -4.3126    1.9846    1.9640 C   0  0  2  0  0  0  0  0  0  0  0  0
   -4.9790    1.8231    0.7078 O   0  0  0  0  0  0  0  0  0  0  0  0
   -6.3234    1.4580    0.5717 C   0  0  0  0  0  0  0  0  0  0  0  0
   -6.8944    1.2852   -0.7939 C   0  0  0  0  0  0  0  0  0  0  0  0
   -7.0476    1.2600    1.5850 O   0  0  0  0  0  0  0  0  0  0  0  0
   -3.0961    2.9803    1.8255 C   0  0  2  0  0  0  0  0  0  0  0  0
   -2.7472    3.6098    3.1915 C   0  0  0  0  0  0  0  0  0  0  0  0
    2.2205   -0.2618   -2.9798 C   0  0  0  0  0  0  0  0  0  0  0  0
    2.9943   -0.5108   -1.7400 C   0  0  0  0  0  0  0  0  0  0  0  0
    2.5058   -0.2064   -0.5763 N   0  0  0  0  0  0  0  0  0  0  0  0
    3.1786   -0.4236    0.6411 N   0  0  0  0  0  0  0  0  0  0  0  0
    3.8855   -1.6816    0.9200 C   0  0  0  0  0  0  0  0  0  0  0  0
    5.0520   -1.4140    1.8691 C   0  0  0  0  0  0  0  0  0  0  0  0
    4.5510   -0.7276    3.0829 N   0  0  0  0  0  0  0  0  0  0  0  0
    3.9734    0.5860    2.7340 C   0  0  0  0  0  0  0  0  0  0  0  0
    2.7878    0.4028    1.7826 C   0  0  0  0  0  0  0  0  0  0  0  0
    5.5208   -0.6222    4.2072 C   0  0  0  0  0  0  0  0  0  0  0  0
    6.8283    0.1220    3.8681 C   0  0  0  0  0  0  0  0  0  0  0  0
    7.9659   -0.7660    4.3538 C   0  0  0  0  0  0  0  0  0  0  0  0
    7.3967   -2.1711    4.4301 C   0  0  0  0  0  0  0  0  0  0  0  0
    5.9238   -1.9963    4.7614 C   0  0  0  0  0  0  0  0  0  0  0  0
    1.3335    0.8208   -3.0941 C   0  0  0  0  0  0  0  0  0  0  0  0
    1.3387    1.8711   -2.1697 O   0  0  0  0  0  0  0  0  0  0  0  0
   -2.1895    7.1341    1.3230 H   0  0  0  0  0  0  0  0  0  0  0  0
   -3.5172    6.3019    2.1977 H   0  0  0  0  0  0  0  0  0  0  0  0
   -3.6839    6.7065    0.4261 H   0  0  0  0  0  0  0  0  0  0  0  0
   -4.4128    4.4729    0.8991 H   0  0  0  0  0  0  0  0  0  0  0  0
   -3.0858    2.5034   -0.7166 H   0  0  0  0  0  0  0  0  0  0  0  0
   -3.5297    5.3684   -1.6228 H   0  0  0  0  0  0  0  0  0  0  0  0
   -4.9889    1.9506   -3.4764 H   0  0  0  0  0  0  0  0  0  0  0  0
   -3.8753    0.5591   -3.7190 H   0  0  0  0  0  0  0  0  0  0  0  0
   -4.0874    1.2418   -2.0908 H   0  0  0  0  0  0  0  0  0  0  0  0
   -0.4263   -0.2540   -8.5466 H   0  0  0  0  0  0  0  0  0  0  0  0
   -2.7639    2.3897   -7.4666 H   0  0  0  0  0  0  0  0  0  0  0  0
   -1.4533    1.8266   -8.5440 H   0  0  0  0  0  0  0  0  0  0  0  0
   -2.6588    0.6392   -7.8844 H   0  0  0  0  0  0  0  0  0  0  0  0
    2.0604   -1.4559   -7.3128 H   0  0  0  0  0  0  0  0  0  0  0  0
    3.9057   -2.5572   -3.7012 H   0  0  0  0  0  0  0  0  0  0  0  0
    3.5930   -6.1583   -1.9174 H   0  0  0  0  0  0  0  0  0  0  0  0
    4.6434   -4.6832   -1.9458 H   0  0  0  0  0  0  0  0  0  0  0  0
    3.8665   -5.2814   -3.4630 H   0  0  0  0  0  0  0  0  0  0  0  0
    2.4562   -4.9189   -0.0917 H   0  0  0  0  0  0  0  0  0  0  0  0
    0.6583   -2.4943   -1.0300 H   0  0  0  0  0  0  0  0  0  0  0  0
    0.9360   -4.1022    1.5444 H   0  0  0  0  0  0  0  0  0  0  0  0
   -0.0719   -1.2679    1.0725 H   0  0  0  0  0  0  0  0  0  0  0  0
   -0.4935   -3.1256    3.4983 H   0  0  0  0  0  0  0  0  0  0  0  0
    1.0078   -2.1845    3.1996 H   0  0  0  0  0  0  0  0  0  0  0  0
   -0.5088   -1.3077    3.4587 H   0  0  0  0  0  0  0  0  0  0  0  0
   -1.9849   -3.6673    1.3119 H   0  0  0  0  0  0  0  0  0  0  0  0
   -2.7380   -2.9451   -0.5804 H   0  0  0  0  0  0  0  0  0  0  0  0
   -3.9002   -2.0236    1.2991 H   0  0  0  0  0  0  0  0  0  0  0  0
   -4.2957   -2.2334    3.5377 H   0  0  0  0  0  0  0  0  0  0  0  0
   -3.0553   -3.4721    3.2888 H   0  0  0  0  0  0  0  0  0  0  0  0
   -2.5973   -1.9048    4.0397 H   0  0  0  0  0  0  0  0  0  0  0  0
   -1.8618    0.0549    2.3057 H   0  0  0  0  0  0  0  0  0  0  0  0
   -3.5219   -0.1210    0.0029 H   0  0  0  0  0  0  0  0  0  0  0  0
   -4.9010   -0.0404    2.4020 H   0  0  0  0  0  0  0  0  0  0  0  0
   -2.7030    0.6481    4.3602 H   0  0  0  0  0  0  0  0  0  0  0  0
   -4.2416   -0.2471    4.5856 H   0  0  0  0  0  0  0  0  0  0  0  0
   -4.2783    1.5077    4.5318 H   0  0  0  0  0  0  0  0  0  0  0  0
   -5.0461    2.4788    2.6409 H   0  0  0  0  0  0  0  0  0  0  0  0
   -8.0002    1.1924   -0.7471 H   0  0  0  0  0  0  0  0  0  0  0  0
   -6.6338    2.1653   -1.4177 H   0  0  0  0  0  0  0  0  0  0  0  0
   -6.4713    0.3698   -1.2571 H   0  0  0  0  0  0  0  0  0  0  0  0
   -2.1895    2.4251    1.5046 H   0  0  0  0  0  0  0  0  0  0  0  0
   -1.9012    4.3221    3.1035 H   0  0  0  0  0  0  0  0  0  0  0  0
   -3.6229    4.1451    3.6160 H   0  0  0  0  0  0  0  0  0  0  0  0
   -2.3997    2.8470    3.9088 H   0  0  0  0  0  0  0  0  0  0  0  0
    3.9716   -0.9654   -1.8237 H   0  0  0  0  0  0  0  0  0  0  0  0
    4.2716   -2.1548   -0.0043 H   0  0  0  0  0  0  0  0  0  0  0  0
    3.1853   -2.3951    1.4023 H   0  0  0  0  0  0  0  0  0  0  0  0
    5.5151   -2.3891    2.1201 H   0  0  0  0  0  0  0  0  0  0  0  0
    5.8032   -0.8006    1.3287 H   0  0  0  0  0  0  0  0  0  0  0  0
    3.6030    1.1027    3.6466 H   0  0  0  0  0  0  0  0  0  0  0  0
    4.7367    1.2375    2.2525 H   0  0  0  0  0  0  0  0  0  0  0  0
    2.4460    1.4005    1.4307 H   0  0  0  0  0  0  0  0  0  0  0  0
    1.9473   -0.0839    2.3199 H   0  0  0  0  0  0  0  0  0  0  0  0
    5.0260   -0.0793    5.0457 H   0  0  0  0  0  0  0  0  0  0  0  0
    6.8627    1.1053    4.3864 H   0  0  0  0  0  0  0  0  0  0  0  0
    6.9518    0.3176    2.7861 H   0  0  0  0  0  0  0  0  0  0  0  0
    8.8387   -0.7224    3.6667 H   0  0  0  0  0  0  0  0  0  0  0  0
    8.2850   -0.4416    5.3691 H   0  0  0  0  0  0  0  0  0  0  0  0
    7.9174   -2.7763    5.2036 H   0  0  0  0  0  0  0  0  0  0  0  0
    7.5066   -2.6718    3.4436 H   0  0  0  0  0  0  0  0  0  0  0  0
    5.3109   -2.8293    4.3553 H   0  0  0  0  0  0  0  0  0  0  0  0
    5.8041   -2.0008    5.8681 H   0  0  0  0  0  0  0  0  0  0  0  0
    2.0746    2.0156   -1.4913 H   0  0  0  0  0  0  0  0  0  0  0  0
  1  2  1  0
  2  3  1  0
  3  4  1  0
  4  5  2  0
  5  6  1  0
  6  7  1  0
  7  8  1  6
  7  9  1  0
  9 10  1  0
 10 11  2  0
 11 12  1  0
 12 13  2  0
 11 14  1  0
 14 15  2  0
 15 16  1  0
 16 17  1  0
 16 18  2  0
 18 19  1  0
 15 20  1  0
 20 21  1  0
 20 22  2  0
 22 23  1  0
 23 24  1  0
 24 25  2  0
 24 26  1  0
 26 27  1  0
 26 28  2  0
 28 29  1  0
 29 30  2  0
 30 31  1  0
 31 32  1  0
 31 33  1  0
 33 34  1  0
 33 35  1  0
 35 36  1  0
 35 37  1  0
 37 38  1  0
 37 39  1  0
 39 40  1  0
 39 41  1  0
 41 42  1  0
 42 43  1  0
 43 44  1  0
 43 45  2  0
 41 46  1  0
 46 47  1  0
 22 48  1  0
 48 49  1  0
 49 50  2  0
 50 51  1  0
 51 52  1  0
 52 53  1  0
 53 54  1  0
 54 55  1  0
 55 56  1  0
 54 57  1  0
 57 58  1  0
 58 59  1  0
 59 60  1  0
 60 61  1  0
 48 62  2  0
 62 63  1  0
 46  3  1  0
 56 51  1  0
 61 57  1  0
 12  7  1  0
 62 14  1  0
 18 10  1  0
  1 64  1  0
  1 65  1  0
  1 66  1  0
  3 67  1  1
  4 68  1  0
  5 69  1  0
  8 70  1  0
  8 71  1  0
  8 72  1  0
 17 73  1  0
 19 74  1  0
 19 75  1  0
 19 76  1  0
 21 77  1  0
 23 78  1  0
 27 79  1  0
 27 80  1  0
 27 81  1  0
 28 82  1  0
 29 83  1  0
 30 84  1  0
 31 85  1  6
 32 86  1  0
 32 87  1  0
 32 88  1  0
 33 89  1  6
 34 90  1  0
 35 91  1  6
 36 92  1  0
 36 93  1  0
 36 94  1  0
 37 95  1  1
 38 96  1  0
 39 97  1  1
 40 98  1  0
 40 99  1  0
 40100  1  0
 41101  1  1
 44102  1  0
 44103  1  0
 44104  1  0
 46105  1  6
 47106  1  0
 47107  1  0
 47108  1  0
 49109  1  0
 52110  1  0
 52111  1  0
 53112  1  0
 53113  1  0
 55114  1  0
 55115  1  0
 56116  1  0
 56117  1  0
 57118  1  0
 58119  1  0
 58120  1  0
 59121  1  0
 59122  1  0
 60123  1  0
 60124  1  0
 61125  1  0
 61126  1  0
 63127  1  0
M  END
$$$$
