
     RDKit          3D

 52 53  0  0  0  0  0  0  0  0999 V2000
   -3.0263   -2.9400    0.9218 C   0  0  2  0  0  0  0  0  0  0  0  0
   -4.4489   -3.2693    0.4563 C   0  0  0  0  0  0  0  0  0  0  0  0
   -2.7712   -1.4975    0.8550 N   0  0  0  0  0  0  0  0  0  0  0  0
   -2.6622   -0.7508   -0.3684 C   0  0  0  0  0  0  0  0  0  0  0  0
   -2.9206   -1.2992   -1.4748 O   0  0  0  0  0  0  0  0  0  0  0  0
   -2.1823    0.6793   -0.3185 C   0  0  2  0  0  0  0  0  0  0  0  0
   -2.3336    1.4156   -1.6672 C   0  0  0  0  0  0  0  0  0  0  0  0
   -1.8665    2.8453   -1.5672 C   0  0  0  0  0  0  0  0  0  0  0  0
   -2.7022    3.8253   -1.0061 C   0  0  0  0  0  0  0  0  0  0  0  0
   -2.2537    5.1436   -0.8774 C   0  0  0  0  0  0  0  0  0  0  0  0
   -0.9676    5.4906   -1.3004 C   0  0  0  0  0  0  0  0  0  0  0  0
   -0.1272    4.5197   -1.8520 C   0  0  0  0  0  0  0  0  0  0  0  0
   -0.5724    3.2010   -1.9842 C   0  0  0  0  0  0  0  0  0  0  0  0
   -0.7959    0.7266    0.1609 N   0  0  0  0  0  0  0  0  0  0  0  0
    0.2966    0.0402   -0.4735 C   0  0  0  0  0  0  0  0  0  0  0  0
    0.1062   -0.6171   -1.5335 O   0  0  0  0  0  0  0  0  0  0  0  0
    1.6822    0.1340    0.1048 C   0  0  2  0  0  0  0  0  0  0  0  0
    2.6724    1.3016   -0.8918 S   0  0  0  0  0  0  0  0  0  0  0  0
    2.3463   -1.2537    0.1770 C   0  0  0  0  0  0  0  0  0  0  0  0
    3.6448   -1.2102    0.9418 C   0  0  0  0  0  0  0  0  0  0  0  0
    3.6365   -1.1978    2.3468 C   0  0  0  0  0  0  0  0  0  0  0  0
    4.8387   -1.1341    3.0581 C   0  0  0  0  0  0  0  0  0  0  0  0
    6.0556   -1.0775    2.3732 C   0  0  0  0  0  0  0  0  0  0  0  0
    6.0723   -1.0827    0.9758 C   0  0  0  0  0  0  0  0  0  0  0  0
    4.8724   -1.1466    0.2605 C   0  0  0  0  0  0  0  0  0  0  0  0
   -1.9753   -3.6993    0.1570 C   0  0  0  0  0  0  0  0  0  0  0  0
   -2.2343   -4.1820   -1.1235 O   0  0  0  0  0  0  0  0  0  0  0  0
   -0.8337   -3.8623    0.6651 O   0  0  0  0  0  0  0  0  0  0  0  0
   -2.9561   -3.2564    1.9866 H   0  0  0  0  0  0  0  0  0  0  0  0
   -5.1834   -2.6972    1.0620 H   0  0  0  0  0  0  0  0  0  0  0  0
   -4.6510   -4.3530    0.5942 H   0  0  0  0  0  0  0  0  0  0  0  0
   -4.5981   -3.0148   -0.6133 H   0  0  0  0  0  0  0  0  0  0  0  0
   -2.5858   -0.9971    1.7538 H   0  0  0  0  0  0  0  0  0  0  0  0
   -2.8254    1.2079    0.4203 H   0  0  0  0  0  0  0  0  0  0  0  0
   -3.4034    1.4050   -1.9717 H   0  0  0  0  0  0  0  0  0  0  0  0
   -1.7698    0.8881   -2.4665 H   0  0  0  0  0  0  0  0  0  0  0  0
   -3.6973    3.5667   -0.6658 H   0  0  0  0  0  0  0  0  0  0  0  0
   -2.9019    5.8954   -0.4461 H   0  0  0  0  0  0  0  0  0  0  0  0
   -0.6212    6.5109   -1.1980 H   0  0  0  0  0  0  0  0  0  0  0  0
    0.8704    4.7881   -2.1748 H   0  0  0  0  0  0  0  0  0  0  0  0
    0.0916    2.4580   -2.4077 H   0  0  0  0  0  0  0  0  0  0  0  0
   -0.6039    1.2775    1.0279 H   0  0  0  0  0  0  0  0  0  0  0  0
    1.6138    0.5459    1.1349 H   0  0  0  0  0  0  0  0  0  0  0  0
    2.5913    0.5311   -2.0679 H   0  0  0  0  0  0  0  0  0  0  0  0
    2.5164   -1.6510   -0.8479 H   0  0  0  0  0  0  0  0  0  0  0  0
    1.6576   -1.9645    0.6857 H   0  0  0  0  0  0  0  0  0  0  0  0
    2.6997   -1.2356    2.8890 H   0  0  0  0  0  0  0  0  0  0  0  0
    4.8268   -1.1264    4.1403 H   0  0  0  0  0  0  0  0  0  0  0  0
    6.9853   -1.0273    2.9252 H   0  0  0  0  0  0  0  0  0  0  0  0
    7.0152   -1.0350    0.4465 H   0  0  0  0  0  0  0  0  0  0  0  0
    4.9001   -1.1433   -0.8221 H   0  0  0  0  0  0  0  0  0  0  0  0
   -1.5212   -4.6755   -1.6469 H   0  0  0  0  0  0  0  0  0  0  0  0
  1  2  1  0
  1  3  1  0
  3  4  1  0
  4  5  2  0
  4  6  1  0
  6  7  1  0
  7  8  1  0
  8  9  2  0
  9 10  1  0
 10 11  2  0
 11 12  1  0
 12 13  2  0
  6 14  1  0
 14 15  1  0
 15 16  2  0
 15 17  1  0
 17 18  1  0
 17 19  1  0
 19 20  1  0
 20 21  2  0
 21 22  1  0
 22 23  2  0
 23 24  1  0
 24 25  2  0
  1 26  1  0
 26 27  1  0
 26 28  2  0
 13  8  1  0
 25 20  1  0
  1 29  1  1
  2 30  1  0
  2 31  1  0
  2 32  1  0
  3 33  1  0
  6 34  1  1
  7 35  1  0
  7 36  1  0
  9 37  1  0
 10 38  1  0
 11 39  1  0
 12 40  1  0
 13 41  1  0
 14 42  1  0
 17 43  1  1
 18 44  1  0
 19 45  1  0
 19 46  1  0
 21 47  1  0
 22 48  1  0
 23 49  1  0
 24 50  1  0
 25 51  1  0
 27 52  1  0
M  END
$$$$
