
     RDKit          3D

 66 71  0  0  0  0  0  0  0  0999 V2000
    4.3807   -0.6106    1.4297 C   0  0  2  0  0  0  0  0  0  0  0  0
    4.8232   -0.9483    2.8730 C   0  0  0  0  0  0  0  0  0  0  0  0
    6.3230   -1.2386    2.9104 C   0  0  0  0  0  0  0  0  0  0  0  0
    7.1431   -0.0322    2.4210 C   0  0  0  0  0  0  0  0  0  0  0  0
    6.3249    0.9293    1.5435 C   0  0  0  0  0  0  0  0  0  0  0  0
    5.3964    0.1839    0.6706 N   0  0  0  0  0  0  0  0  0  0  0  0
    4.8299    1.0857   -0.3600 C   0  0  0  0  0  0  0  0  0  0  0  0
    3.5543    0.5187   -0.9902 C   0  0  0  0  0  0  0  0  0  0  0  0
    2.5425    0.2805    0.0473 N   0  0  0  0  0  0  0  0  0  0  0  0
    2.9851    0.0426    1.4277 C   0  0  0  0  0  0  0  0  0  0  0  0
    1.1359    0.2981   -0.2825 C   0  0  0  0  0  0  0  0  0  0  0  0
    0.6887   -0.1619   -1.5336 C   0  0  0  0  0  0  0  0  0  0  0  0
   -0.6716   -0.1482   -1.8517 C   0  0  0  0  0  0  0  0  0  0  0  0
   -1.6146    0.3360   -0.9315 C   0  0  0  0  0  0  0  0  0  0  0  0
   -1.1713    0.7844    0.3248 C   0  0  0  0  0  0  0  0  0  0  0  0
    0.1888    0.7713    0.6430 C   0  0  0  0  0  0  0  0  0  0  0  0
   -3.0926    0.2898   -1.2714 C   0  0  1  0  0  0  0  0  0  0  0  0
   -3.7087   -0.8791   -0.6169 N   0  0  0  0  0  0  0  0  0  0  0  0
   -4.3829   -0.7214    0.6755 C   0  0  0  0  0  0  0  0  0  0  0  0
   -5.4393    0.3718    0.5771 C   0  0  0  0  0  0  0  0  0  0  0  0
   -4.8685    1.6358   -0.0049 C   0  0  0  0  0  0  0  0  0  0  0  0
   -5.4851    2.8634    0.2866 C   0  0  0  0  0  0  0  0  0  0  0  0
   -5.0273    4.0461   -0.3002 C   0  0  0  0  0  0  0  0  0  0  0  0
   -5.6475    5.2537    0.0125 O   0  0  0  0  0  0  0  0  0  0  0  0
   -3.9567    4.0066   -1.1995 C   0  0  0  0  0  0  0  0  0  0  0  0
   -3.3468    2.7900   -1.5106 C   0  0  0  0  0  0  0  0  0  0  0  0
   -3.7888    1.5945   -0.9163 C   0  0  0  0  0  0  0  0  0  0  0  0
   -3.3707   -2.1998   -1.0833 C   0  0  0  0  0  0  0  0  0  0  0  0
   -3.6278   -2.5692   -2.4141 C   0  0  0  0  0  0  0  0  0  0  0  0
   -3.2769   -3.8425   -2.8728 C   0  0  0  0  0  0  0  0  0  0  0  0
   -2.6661   -4.7550   -2.0086 C   0  0  0  0  0  0  0  0  0  0  0  0
   -2.4061   -4.3960   -0.6835 C   0  0  0  0  0  0  0  0  0  0  0  0
   -2.7563   -3.1242   -0.2206 C   0  0  0  0  0  0  0  0  0  0  0  0
    4.2786   -1.5844    0.8998 H   0  0  0  0  0  0  0  0  0  0  0  0
    4.6005   -0.1019    3.5603 H   0  0  0  0  0  0  0  0  0  0  0  0
    4.2642   -1.8371    3.2392 H   0  0  0  0  0  0  0  0  0  0  0  0
    6.5352   -2.1185    2.2635 H   0  0  0  0  0  0  0  0  0  0  0  0
    6.6259   -1.5026    3.9468 H   0  0  0  0  0  0  0  0  0  0  0  0
    8.0195   -0.4021    1.8452 H   0  0  0  0  0  0  0  0  0  0  0  0
    7.5335    0.5321    3.2959 H   0  0  0  0  0  0  0  0  0  0  0  0
    5.7566    1.6351    2.1913 H   0  0  0  0  0  0  0  0  0  0  0  0
    7.0349    1.5296    0.9314 H   0  0  0  0  0  0  0  0  0  0  0  0
    4.5848    2.0819    0.0757 H   0  0  0  0  0  0  0  0  0  0  0  0
    5.5850    1.2402   -1.1607 H   0  0  0  0  0  0  0  0  0  0  0  0
    3.1737    1.2550   -1.7317 H   0  0  0  0  0  0  0  0  0  0  0  0
    3.7821   -0.4340   -1.5151 H   0  0  0  0  0  0  0  0  0  0  0  0
    3.0122    1.0086    1.9772 H   0  0  0  0  0  0  0  0  0  0  0  0
    2.2720   -0.6411    1.9400 H   0  0  0  0  0  0  0  0  0  0  0  0
    1.3894   -0.5514   -2.2603 H   0  0  0  0  0  0  0  0  0  0  0  0
   -0.9898   -0.5257   -2.8156 H   0  0  0  0  0  0  0  0  0  0  0  0
   -1.8770    1.1523    1.0582 H   0  0  0  0  0  0  0  0  0  0  0  0
    0.5006    1.1422    1.6105 H   0  0  0  0  0  0  0  0  0  0  0  0
   -3.2120    0.1820   -2.3717 H   0  0  0  0  0  0  0  0  0  0  0  0
   -4.8847   -1.6683    0.9740 H   0  0  0  0  0  0  0  0  0  0  0  0
   -3.6382   -0.4643    1.4585 H   0  0  0  0  0  0  0  0  0  0  0  0
   -5.8501    0.5632    1.5925 H   0  0  0  0  0  0  0  0  0  0  0  0
   -6.2690    0.0231   -0.0750 H   0  0  0  0  0  0  0  0  0  0  0  0
   -6.3277    2.9016    0.9665 H   0  0  0  0  0  0  0  0  0  0  0  0
   -5.3409    6.1282   -0.3973 H   0  0  0  0  0  0  0  0  0  0  0  0
   -3.5990    4.9177   -1.6620 H   0  0  0  0  0  0  0  0  0  0  0  0
   -2.5231    2.7780   -2.2139 H   0  0  0  0  0  0  0  0  0  0  0  0
   -4.1104   -1.8772   -3.0919 H   0  0  0  0  0  0  0  0  0  0  0  0
   -3.4800   -4.1224   -3.8984 H   0  0  0  0  0  0  0  0  0  0  0  0
   -2.3941   -5.7399   -2.3657 H   0  0  0  0  0  0  0  0  0  0  0  0
   -1.9293   -5.1019   -0.0158 H   0  0  0  0  0  0  0  0  0  0  0  0
   -2.5340   -2.8530    0.8037 H   0  0  0  0  0  0  0  0  0  0  0  0
  1  2  1  0
  2  3  1  0
  3  4  1  0
  4  5  1  0
  5  6  1  0
  6  7  1  0
  7  8  1  0
  8  9  1  0
  9 10  1  0
  9 11  1  0
 11 12  2  0
 12 13  1  0
 13 14  2  0
 14 15  1  0
 15 16  2  0
 14 17  1  0
 17 18  1  0
 18 19  1  0
 19 20  1  0
 20 21  1  0
 21 22  2  0
 22 23  1  0
 23 24  1  0
 23 25  2  0
 25 26  1  0
 26 27  2  0
 18 28  1  0
 28 29  2  0
 29 30  1  0
 30 31  2  0
 31 32  1  0
 32 33  2  0
  6  1  1  0
 16 11  1  0
 27 17  1  0
 33 28  1  0
 10  1  1  0
 27 21  1  0
  1 34  1  6
  2 35  1  0
  2 36  1  0
  3 37  1  0
  3 38  1  0
  4 39  1  0
  4 40  1  0
  5 41  1  0
  5 42  1  0
  7 43  1  0
  7 44  1  0
  8 45  1  0
  8 46  1  0
 10 47  1  0
 10 48  1  0
 12 49  1  0
 13 50  1  0
 15 51  1  0
 16 52  1  0
 17 53  1  6
 19 54  1  0
 19 55  1  0
 20 56  1  0
 20 57  1  0
 22 58  1  0
 24 59  1  0
 25 60  1  0
 26 61  1  0
 29 62  1  0
 30 63  1  0
 31 64  1  0
 32 65  1  0
 33 66  1  0
M  END
$$$$
