
     RDKit          3D

 20 20  0  0  0  0  0  0  0  0999 V2000
   -2.3559   -2.2552    0.2800 O   0  0  0  0  0  0  0  0  0  0  0  0
   -2.5598   -0.7114   -0.3815 P   0  0  0  0  0  5  0  0  0  0  0  0
   -4.0566   -0.0914    0.1052 O   0  0  0  0  0  0  0  0  0  0  0  0
   -2.5218   -0.7979   -1.8905 O   0  0  0  0  0  0  0  0  0  0  0  0
   -1.3061    0.3320    0.1739 O   0  0  0  0  0  0  0  0  0  0  0  0
    0.0693    0.1201   -0.0236 C   0  0  0  0  0  0  0  0  0  0  0  0
    0.9833    1.0651    0.4933 C   0  0  0  0  0  0  0  0  0  0  0  0
    0.4950    2.2530    1.2270 C   0  0  0  0  0  0  0  0  0  0  0  0
    1.2981    3.1042    1.6939 O   0  0  0  0  0  0  0  0  0  0  0  0
    2.3644    0.8701    0.3064 C   0  0  0  0  0  0  0  0  0  0  0  0
    2.8348   -0.2474   -0.3841 C   0  0  0  0  0  0  0  0  0  0  0  0
    1.9362   -1.1817   -0.8956 C   0  0  0  0  0  0  0  0  0  0  0  0
    0.5627   -1.0037   -0.7193 C   0  0  0  0  0  0  0  0  0  0  0  0
   -2.2991   -2.1036    1.2570 H   0  0  0  0  0  0  0  0  0  0  0  0
   -4.0628    0.8419   -0.2265 H   0  0  0  0  0  0  0  0  0  0  0  0
   -0.5655    2.4091    1.3743 H   0  0  0  0  0  0  0  0  0  0  0  0
    3.0822    1.5821    0.6945 H   0  0  0  0  0  0  0  0  0  0  0  0
    3.8989   -0.3891   -0.5230 H   0  0  0  0  0  0  0  0  0  0  0  0
    2.3046   -2.0474   -1.4309 H   0  0  0  0  0  0  0  0  0  0  0  0
   -0.1019   -1.7490   -1.1304 H   0  0  0  0  0  0  0  0  0  0  0  0
  1  2  1  0
  2  3  1  0
  2  4  2  0
  2  5  1  0
  5  6  1  0
  6  7  2  0
  7  8  1  0
  8  9  2  0
  7 10  1  0
 10 11  2  0
 11 12  1  0
 12 13  2  0
 13  6  1  0
  1 14  1  0
  3 15  1  0
  8 16  1  0
 10 17  1  0
 11 18  1  0
 12 19  1  0
 13 20  1  0
M  END
$$$$
