
     RDKit          3D

 30 31  0  0  0  0  0  0  0  0999 V2000
    2.2419    0.7969    2.1772 C   0  0  0  0  0  0  0  0  0  0  0  0
    2.3311    0.0128    0.8899 C   0  0  0  0  0  0  0  0  0  0  0  0
    3.5505   -0.5875    0.4943 C   0  0  0  0  0  0  0  0  0  0  0  0
    5.0272   -0.4303    1.4429 Cl  0  0  0  0  0  0  0  0  0  0  0  0
    3.6172   -1.3256   -0.6914 C   0  0  0  0  0  0  0  0  0  0  0  0
    2.4934   -1.4606   -1.5027 C   0  0  0  0  0  0  0  0  0  0  0  0
    1.2949   -0.8472   -1.1443 C   0  0  0  0  0  0  0  0  0  0  0  0
    1.1979   -0.1031    0.0446 C   0  0  0  0  0  0  0  0  0  0  0  0
   -0.0328    0.5763    0.3604 N   0  0  0  0  0  0  0  0  0  0  0  0
   -1.3313    0.0408    0.0496 C   0  0  0  0  0  0  0  0  0  0  0  0
   -1.5859   -1.3238    0.2768 C   0  0  0  0  0  0  0  0  0  0  0  0
   -2.8605   -1.8530    0.0743 C   0  0  0  0  0  0  0  0  0  0  0  0
   -3.9006   -1.0263   -0.3457 C   0  0  0  0  0  0  0  0  0  0  0  0
   -3.6674    0.3307   -0.5755 C   0  0  0  0  0  0  0  0  0  0  0  0
   -2.3845    0.8816   -0.3928 C   0  0  0  0  0  0  0  0  0  0  0  0
   -2.1671    2.3127   -0.7153 C   0  0  0  0  0  0  0  0  0  0  0  0
   -0.9077    2.7744   -1.0883 O   0  0  0  0  0  0  0  0  0  0  0  0
   -3.1349    3.1206   -0.6901 O   0  0  0  0  0  0  0  0  0  0  0  0
    2.9970    0.4671    2.9187 H   0  0  0  0  0  0  0  0  0  0  0  0
    1.2537    0.6472    2.6605 H   0  0  0  0  0  0  0  0  0  0  0  0
    2.3889    1.8764    1.9653 H   0  0  0  0  0  0  0  0  0  0  0  0
    4.5477   -1.7913   -0.9908 H   0  0  0  0  0  0  0  0  0  0  0  0
    2.5562   -2.0276   -2.4226 H   0  0  0  0  0  0  0  0  0  0  0  0
    0.4446   -0.9339   -1.8088 H   0  0  0  0  0  0  0  0  0  0  0  0
    0.0116    1.4932    0.8587 H   0  0  0  0  0  0  0  0  0  0  0  0
   -0.7987   -1.9745    0.6364 H   0  0  0  0  0  0  0  0  0  0  0  0
   -3.0449   -2.9040    0.2558 H   0  0  0  0  0  0  0  0  0  0  0  0
   -4.8899   -1.4382   -0.4978 H   0  0  0  0  0  0  0  0  0  0  0  0
   -4.4895    0.9471   -0.9183 H   0  0  0  0  0  0  0  0  0  0  0  0
   -0.7580    3.7489   -1.3208 H   0  0  0  0  0  0  0  0  0  0  0  0
  1  2  1  0
  2  3  2  0
  3  4  1  0
  3  5  1  0
  5  6  2  0
  6  7  1  0
  7  8  2  0
  8  9  1  0
  9 10  1  0
 10 11  2  0
 11 12  1  0
 12 13  2  0
 13 14  1  0
 14 15  2  0
 15 16  1  0
 16 17  1  0
 16 18  2  0
  8  2  1  0
 15 10  1  0
  1 19  1  0
  1 20  1  0
  1 21  1  0
  5 22  1  0
  6 23  1  0
  7 24  1  0
  9 25  1  0
 11 26  1  0
 12 27  1  0
 13 28  1  0
 14 29  1  0
 17 30  1  0
M  END
$$$$
