
     RDKit          3D

 33 34  0  0  0  0  0  0  0  0999 V2000
   -1.6161   -1.7806    0.3857 C   0  0  0  0  0  0  0  0  0  0  0  0
   -1.3091   -0.4791   -0.3639 C   0  0  2  0  0  0  0  0  0  0  0  0
   -0.2595    0.2756    0.3322 N   0  0  0  0  0  0  0  0  0  0  0  0
    1.1242   -0.0944    0.2805 C   0  0  0  0  0  0  0  0  0  0  0  0
    1.5378   -1.0916   -0.4239 N   0  0  0  0  0  0  0  0  0  0  0  0
    2.9381   -1.2738   -0.3360 C   0  0  0  0  0  0  0  0  0  0  0  0
    3.5149   -2.2098   -0.9511 O   0  0  0  0  0  0  0  0  0  0  0  0
    3.6713   -0.2956    0.5311 C   0  0  2  0  0  0  0  0  0  0  0  0
    4.3450   -1.0246    1.7025 C   0  0  0  0  0  0  0  0  0  0  0  0
    2.3703    0.8216    1.1877 S   0  0  0  0  0  0  0  0  0  0  0  0
    4.6913    0.5183   -0.2920 C   0  0  0  0  0  0  0  0  0  0  0  0
    5.6768   -0.3108   -0.8006 F   0  0  0  0  0  0  0  0  0  0  0  0
    4.0585    1.1526   -1.3481 F   0  0  0  0  0  0  0  0  0  0  0  0
    5.2901    1.4795    0.5043 F   0  0  0  0  0  0  0  0  0  0  0  0
   -2.5641    0.3643   -0.5174 C   0  0  0  0  0  0  0  0  0  0  0  0
   -3.0828    0.6639   -1.7950 C   0  0  0  0  0  0  0  0  0  0  0  0
   -2.4740    0.2103   -2.9200 F   0  0  0  0  0  0  0  0  0  0  0  0
   -4.2413    1.4380   -1.9217 C   0  0  0  0  0  0  0  0  0  0  0  0
   -4.8940    1.9199   -0.7854 C   0  0  0  0  0  0  0  0  0  0  0  0
   -4.3911    1.6299    0.4838 C   0  0  0  0  0  0  0  0  0  0  0  0
   -3.2347    0.8572    0.6200 C   0  0  0  0  0  0  0  0  0  0  0  0
   -1.9018   -1.5739    1.4386 H   0  0  0  0  0  0  0  0  0  0  0  0
   -0.7237   -2.4409    0.3892 H   0  0  0  0  0  0  0  0  0  0  0  0
   -2.4458   -2.3237   -0.1153 H   0  0  0  0  0  0  0  0  0  0  0  0
   -0.9289   -0.7586   -1.3704 H   0  0  0  0  0  0  0  0  0  0  0  0
   -0.5093    1.1199    0.8950 H   0  0  0  0  0  0  0  0  0  0  0  0
    3.5928   -1.5996    2.2849 H   0  0  0  0  0  0  0  0  0  0  0  0
    4.8300   -0.2957    2.3862 H   0  0  0  0  0  0  0  0  0  0  0  0
    5.1182   -1.7325    1.3340 H   0  0  0  0  0  0  0  0  0  0  0  0
   -4.6350    1.6651   -2.9041 H   0  0  0  0  0  0  0  0  0  0  0  0
   -5.7898    2.5184   -0.8887 H   0  0  0  0  0  0  0  0  0  0  0  0
   -4.8977    2.0043    1.3640 H   0  0  0  0  0  0  0  0  0  0  0  0
   -2.8608    0.6464    1.6139 H   0  0  0  0  0  0  0  0  0  0  0  0
  1  2  1  0
  2  3  1  0
  3  4  1  0
  4  5  2  0
  5  6  1  0
  6  7  2  0
  6  8  1  0
  8  9  1  1
  8 10  1  0
  8 11  1  0
 11 12  1  0
 11 13  1  0
 11 14  1  0
  2 15  1  0
 15 16  2  0
 16 17  1  0
 16 18  1  0
 18 19  2  0
 19 20  1  0
 20 21  2  0
 10  4  1  0
 21 15  1  0
  1 22  1  0
  1 23  1  0
  1 24  1  0
  2 25  1  6
  3 26  1  0
  9 27  1  0
  9 28  1  0
  9 29  1  0
 18 30  1  0
 19 31  1  0
 20 32  1  0
 21 33  1  0
M  END
$$$$
