
     RDKit          3D

 63 67  0  0  0  0  0  0  0  0999 V2000
    1.9746   -2.6678   -0.7738 C   0  0  2  0  0  0  0  0  0  0  0  0
    0.4493   -2.6916   -0.9932 C   0  0  0  0  0  0  0  0  0  0  0  0
    0.0041   -1.2882   -0.6020 C   0  0  1  0  0  0  0  0  0  0  0  0
   -1.5010   -1.0113   -0.3818 C   0  0  2  0  0  0  0  0  0  0  0  0
   -2.3044   -1.4271   -1.6340 C   0  0  0  0  0  0  0  0  0  0  0  0
   -3.7849   -1.0834   -1.4931 C   0  0  0  0  0  0  0  0  0  0  0  0
   -3.9365    0.3851   -1.1909 C   0  0  0  0  0  0  0  0  0  0  0  0
   -4.7028    1.1473   -1.9878 C   0  0  0  0  0  0  0  0  0  0  0  0
   -4.8190    2.5872   -1.7638 C   0  0  0  0  0  0  0  0  0  0  0  0
   -5.5569    3.2870   -2.5061 O   0  0  0  0  0  0  0  0  0  0  0  0
   -4.0604    3.2110   -0.6835 C   0  0  0  0  0  0  0  0  0  0  0  0
   -3.2985    2.4727    0.1242 C   0  0  0  0  0  0  0  0  0  0  0  0
   -3.1991    0.9483    0.0354 C   0  0  1  0  0  0  0  0  0  0  0  0
   -3.8930    0.3833    1.2986 C   0  0  0  0  0  0  0  0  0  0  0  0
   -1.6823    0.5228   -0.0919 C   0  0  1  0  0  0  0  0  0  0  0  0
   -0.7337    1.0407    1.0482 C   0  0  1  0  0  0  0  0  0  0  0  0
   -1.1961    0.6460    2.3121 O   0  0  0  0  0  0  0  0  0  0  0  0
    0.7439    0.5958    0.8558 C   0  0  0  0  0  0  0  0  0  0  0  0
    0.8838   -0.9290    0.6055 C   0  0  1  0  0  0  0  0  0  0  0  0
    0.4952   -1.7274    1.8963 C   0  0  0  0  0  0  0  0  0  0  0  0
    2.2901   -1.4124    0.1113 C   0  0  2  0  0  0  0  0  0  0  0  0
    2.8928   -0.4826   -0.8480 N   0  0  0  0  0  0  0  0  0  0  0  0
    3.0876   -1.0787   -1.9717 C   0  0  0  0  0  0  0  0  0  0  0  0
    3.6988   -0.4010   -3.1487 C   0  0  0  0  0  0  0  0  0  0  0  0
    2.6273   -2.3779   -1.9994 O   0  0  0  0  0  0  0  0  0  0  0  0
    3.3022   -1.6832    1.2321 C   0  0  0  0  0  0  0  0  0  0  0  0
    3.5843   -2.8341    1.5319 O   0  0  0  0  0  0  0  0  0  0  0  0
    3.9100   -0.5770    2.0610 C   0  0  0  0  0  0  0  0  0  0  0  0
    3.8979    0.6646    1.3652 O   0  0  0  0  0  0  0  0  0  0  0  0
    4.3432    1.8584    1.9367 C   0  0  0  0  0  0  0  0  0  0  0  0
    4.2733    3.1190    1.1447 C   0  0  0  0  0  0  0  0  0  0  0  0
    4.8361    1.8738    3.0973 O   0  0  0  0  0  0  0  0  0  0  0  0
    2.3283   -3.6400   -0.3705 H   0  0  0  0  0  0  0  0  0  0  0  0
    0.1958   -2.9194   -2.0516 H   0  0  0  0  0  0  0  0  0  0  0  0
   -0.0287   -3.4510   -0.3375 H   0  0  0  0  0  0  0  0  0  0  0  0
    0.3044   -0.6353   -1.4582 H   0  0  0  0  0  0  0  0  0  0  0  0
   -1.8793   -1.6186    0.4615 H   0  0  0  0  0  0  0  0  0  0  0  0
   -2.2181   -2.5240   -1.7895 H   0  0  0  0  0  0  0  0  0  0  0  0
   -1.8974   -0.9201   -2.5375 H   0  0  0  0  0  0  0  0  0  0  0  0
   -4.3062   -1.3685   -2.4336 H   0  0  0  0  0  0  0  0  0  0  0  0
   -4.2355   -1.6826   -0.6737 H   0  0  0  0  0  0  0  0  0  0  0  0
   -5.2266    0.7124   -2.8310 H   0  0  0  0  0  0  0  0  0  0  0  0
   -4.1229    4.2818   -0.5332 H   0  0  0  0  0  0  0  0  0  0  0  0
   -2.8009    2.9841    0.9378 H   0  0  0  0  0  0  0  0  0  0  0  0
   -3.5894    0.9267    2.2169 H   0  0  0  0  0  0  0  0  0  0  0  0
   -3.6843   -0.6945    1.4458 H   0  0  0  0  0  0  0  0  0  0  0  0
   -4.9951    0.5060    1.2147 H   0  0  0  0  0  0  0  0  0  0  0  0
   -1.3183    1.0445   -1.0090 H   0  0  0  0  0  0  0  0  0  0  0  0
   -0.7225    2.1532    1.0035 H   0  0  0  0  0  0  0  0  0  0  0  0
   -0.7643    1.2405    2.9800 H   0  0  0  0  0  0  0  0  0  0  0  0
    1.3337    0.8921    1.7487 H   0  0  0  0  0  0  0  0  0  0  0  0
    1.1586    1.1638   -0.0052 H   0  0  0  0  0  0  0  0  0  0  0  0
    0.7336   -2.8069    1.7972 H   0  0  0  0  0  0  0  0  0  0  0  0
   -0.5738   -1.6652    2.1598 H   0  0  0  0  0  0  0  0  0  0  0  0
    1.0585   -1.3424    2.7715 H   0  0  0  0  0  0  0  0  0  0  0  0
    4.0798   -1.1596   -3.8635 H   0  0  0  0  0  0  0  0  0  0  0  0
    2.9333    0.2244   -3.6532 H   0  0  0  0  0  0  0  0  0  0  0  0
    4.5422    0.2424   -2.8207 H   0  0  0  0  0  0  0  0  0  0  0  0
    3.3410   -0.4827    3.0101 H   0  0  0  0  0  0  0  0  0  0  0  0
    4.9624   -0.8409    2.3040 H   0  0  0  0  0  0  0  0  0  0  0  0
    4.0479    3.9774    1.8120 H   0  0  0  0  0  0  0  0  0  0  0  0
    5.2455    3.2920    0.6383 H   0  0  0  0  0  0  0  0  0  0  0  0
    3.4724    3.0401    0.3797 H   0  0  0  0  0  0  0  0  0  0  0  0
  1  2  1  0
  2  3  1  0
  3  4  1  0
  4  5  1  0
  5  6  1  0
  6  7  1  0
  7  8  2  0
  8  9  1  0
  9 10  2  0
  9 11  1  0
 11 12  2  0
 12 13  1  0
 13 14  1  1
 13 15  1  0
 15 16  1  0
 16 17  1  0
 16 18  1  0
 18 19  1  0
 19 20  1  1
 19 21  1  0
 21 22  1  0
 22 23  2  0
 23 24  1  0
 23 25  1  0
 21 26  1  1
 26 27  2  0
 26 28  1  0
 28 29  1  0
 29 30  1  0
 30 31  1  0
 30 32  2  0
 21  1  1  0
 25  1  1  0
 19  3  1  0
 15  4  1  0
 13  7  1  0
  1 33  1  1
  2 34  1  0
  2 35  1  0
  3 36  1  6
  4 37  1  1
  5 38  1  0
  5 39  1  0
  6 40  1  0
  6 41  1  0
  8 42  1  0
 11 43  1  0
 12 44  1  0
 14 45  1  0
 14 46  1  0
 14 47  1  0
 15 48  1  6
 16 49  1  1
 17 50  1  0
 18 51  1  0
 18 52  1  0
 20 53  1  0
 20 54  1  0
 20 55  1  0
 24 56  1  0
 24 57  1  0
 24 58  1  0
 28 59  1  0
 28 60  1  0
 31 61  1  0
 31 62  1  0
 31 63  1  0
M  END
$$$$
