
     RDKit          3D

 76 75  0  0  0  0  0  0  0  0999 V2000
    0.9206    2.7779    0.1618 C   0  0  2  0  0  0  0  0  0  0  0  0
    0.1079    2.5805   -1.1302 C   0  0  0  0  0  0  0  0  0  0  0  0
   -1.2387    2.3006   -0.7994 O   0  0  0  0  0  0  0  0  0  0  0  0
   -1.9449    1.8151   -1.9271 C   0  0  0  0  0  0  0  0  0  0  0  0
   -1.8071    0.2902   -2.0721 C   0  0  0  0  0  0  0  0  0  0  0  0
   -2.2763   -0.4602   -0.8134 C   0  0  0  0  0  0  0  0  0  0  0  0
   -1.8712   -1.9436   -0.8297 C   0  0  0  0  0  0  0  0  0  0  0  0
   -2.7289   -2.7796   -1.7934 C   0  0  0  0  0  0  0  0  0  0  0  0
   -2.2219   -4.2258   -1.9429 C   0  0  0  0  0  0  0  0  0  0  0  0
   -2.2135   -5.0488   -0.6426 C   0  0  0  0  0  0  0  0  0  0  0  0
   -3.6040   -5.2145   -0.0314 C   0  0  0  0  0  0  0  0  0  0  0  0
    0.7715    4.2121    0.6781 C   0  0  0  0  0  0  0  0  0  0  0  0
    1.4528    4.3327    1.9045 O   0  0  0  0  0  0  0  0  0  0  0  0
    1.3288    5.9499    2.4301 P   0  0  0  0  0  5  0  0  0  0  0  0
    2.1797    6.9598    1.3651 O   0  0  0  0  0  0  0  0  0  0  0  0
    1.9581    6.0570    3.8001 O   0  0  0  0  0  0  0  0  0  0  0  0
   -0.3181    6.3888    2.5579 O   0  0  0  0  0  0  0  0  0  0  0  0
   -0.6113    7.3663    1.5886 C   0  0  0  0  0  0  0  0  0  0  0  0
   -2.1076    7.6684    1.6079 C   0  0  0  0  0  0  0  0  0  0  0  0
   -2.8711    6.5020    1.1728 N   0  0  0  0  0  0  0  0  0  0  0  0
    2.2894    2.5306   -0.1060 O   0  0  0  0  0  0  0  0  0  0  0  0
    2.7629    1.0077    0.5179 P   0  0  0  0  0  5  0  0  0  0  0  0
    2.7836    1.0782    2.2107 O   0  0  0  0  0  0  0  0  0  0  0  0
    4.1643    0.7177    0.0332 O   0  0  0  0  0  0  0  0  0  0  0  0
    1.6445   -0.3329   -0.0415 C   0  0  0  0  0  0  0  0  0  0  0  0
    2.0198   -1.6984    0.5523 C   0  0  0  0  0  0  0  0  0  0  0  0
    3.0630   -2.4357   -0.3018 C   0  0  0  0  0  0  0  0  0  0  0  0
    3.5073   -3.7725    0.3185 C   0  0  0  0  0  0  0  0  0  0  0  0
    2.3811   -4.8056    0.5295 C   0  0  0  0  0  0  0  0  0  0  0  0
    1.5654   -5.1462   -0.7297 C   0  0  0  0  0  0  0  0  0  0  0  0
    2.4146   -5.7564   -1.8433 C   0  0  0  0  0  0  0  0  0  0  0  0
    0.4934    2.1221    0.9564 H   0  0  0  0  0  0  0  0  0  0  0  0
    0.1646    3.4926   -1.7665 H   0  0  0  0  0  0  0  0  0  0  0  0
    0.5663    1.7474   -1.7047 H   0  0  0  0  0  0  0  0  0  0  0  0
   -1.6348    2.3171   -2.8736 H   0  0  0  0  0  0  0  0  0  0  0  0
   -3.0200    2.0575   -1.7878 H   0  0  0  0  0  0  0  0  0  0  0  0
   -2.4199   -0.0284   -2.9416 H   0  0  0  0  0  0  0  0  0  0  0  0
   -0.7527    0.0292   -2.2991 H   0  0  0  0  0  0  0  0  0  0  0  0
   -1.8155    0.0020    0.0856 H   0  0  0  0  0  0  0  0  0  0  0  0
   -3.3790   -0.3654   -0.7062 H   0  0  0  0  0  0  0  0  0  0  0  0
   -0.7959   -2.0393   -1.0953 H   0  0  0  0  0  0  0  0  0  0  0  0
   -2.0001   -2.3368    0.2010 H   0  0  0  0  0  0  0  0  0  0  0  0
   -3.7879   -2.7761   -1.4585 H   0  0  0  0  0  0  0  0  0  0  0  0
   -2.7051   -2.3191   -2.8031 H   0  0  0  0  0  0  0  0  0  0  0  0
   -1.1896   -4.2039   -2.3548 H   0  0  0  0  0  0  0  0  0  0  0  0
   -2.8565   -4.7469   -2.6927 H   0  0  0  0  0  0  0  0  0  0  0  0
   -1.8158   -6.0597   -0.8779 H   0  0  0  0  0  0  0  0  0  0  0  0
   -1.5264   -4.5969    0.1033 H   0  0  0  0  0  0  0  0  0  0  0  0
   -3.9733   -4.2474    0.3687 H   0  0  0  0  0  0  0  0  0  0  0  0
   -3.5535   -5.9378    0.8095 H   0  0  0  0  0  0  0  0  0  0  0  0
   -4.3184   -5.6012   -0.7889 H   0  0  0  0  0  0  0  0  0  0  0  0
    1.1950    4.9106   -0.0806 H   0  0  0  0  0  0  0  0  0  0  0  0
   -0.3136    4.4232    0.8172 H   0  0  0  0  0  0  0  0  0  0  0  0
    3.0761    6.5462    1.2866 H   0  0  0  0  0  0  0  0  0  0  0  0
   -0.3411    7.0195    0.5645 H   0  0  0  0  0  0  0  0  0  0  0  0
   -0.0655    8.3086    1.8201 H   0  0  0  0  0  0  0  0  0  0  0  0
   -2.4207    7.9723    2.6319 H   0  0  0  0  0  0  0  0  0  0  0  0
   -2.3098    8.5153    0.9161 H   0  0  0  0  0  0  0  0  0  0  0  0
   -3.8742    6.7882    1.1001 H   0  0  0  0  0  0  0  0  0  0  0  0
   -2.8250    5.7781    1.9265 H   0  0  0  0  0  0  0  0  0  0  0  0
    1.8504    0.9036    2.4916 H   0  0  0  0  0  0  0  0  0  0  0  0
    0.6163   -0.0871    0.2900 H   0  0  0  0  0  0  0  0  0  0  0  0
    1.6383   -0.3742   -1.1513 H   0  0  0  0  0  0  0  0  0  0  0  0
    1.0944   -2.3110    0.5915 H   0  0  0  0  0  0  0  0  0  0  0  0
    2.3862   -1.5833    1.5953 H   0  0  0  0  0  0  0  0  0  0  0  0
    2.6665   -2.6042   -1.3254 H   0  0  0  0  0  0  0  0  0  0  0  0
    3.9657   -1.7991   -0.4068 H   0  0  0  0  0  0  0  0  0  0  0  0
    4.2961   -4.2181   -0.3245 H   0  0  0  0  0  0  0  0  0  0  0  0
    3.9824   -3.5680    1.3027 H   0  0  0  0  0  0  0  0  0  0  0  0
    2.8350   -5.7406    0.9242 H   0  0  0  0  0  0  0  0  0  0  0  0
    1.6877   -4.4406    1.3167 H   0  0  0  0  0  0  0  0  0  0  0  0
    0.7856   -5.8849   -0.4454 H   0  0  0  0  0  0  0  0  0  0  0  0
    1.0374   -4.2467   -1.1088 H   0  0  0  0  0  0  0  0  0  0  0  0
    3.1204   -5.0053   -2.2546 H   0  0  0  0  0  0  0  0  0  0  0  0
    2.9837   -6.6309   -1.4624 H   0  0  0  0  0  0  0  0  0  0  0  0
    1.7524   -6.0959   -2.6674 H   0  0  0  0  0  0  0  0  0  0  0  0
  1  2  1  0
  2  3  1  0
  3  4  1  0
  4  5  1  0
  5  6  1  0
  6  7  1  0
  7  8  1  0
  8  9  1  0
  9 10  1  0
 10 11  1  0
  1 12  1  0
 12 13  1  0
 13 14  1  0
 14 15  1  0
 14 16  2  0
 14 17  1  0
 17 18  1  0
 18 19  1  0
 19 20  1  0
  1 21  1  0
 21 22  1  0
 22 23  1  0
 22 24  2  0
 22 25  1  0
 25 26  1  0
 26 27  1  0
 27 28  1  0
 28 29  1  0
 29 30  1  0
 30 31  1  0
  1 32  1  1
  2 33  1  0
  2 34  1  0
  4 35  1  0
  4 36  1  0
  5 37  1  0
  5 38  1  0
  6 39  1  0
  6 40  1  0
  7 41  1  0
  7 42  1  0
  8 43  1  0
  8 44  1  0
  9 45  1  0
  9 46  1  0
 10 47  1  0
 10 48  1  0
 11 49  1  0
 11 50  1  0
 11 51  1  0
 12 52  1  0
 12 53  1  0
 15 54  1  0
 18 55  1  0
 18 56  1  0
 19 57  1  0
 19 58  1  0
 20 59  1  0
 20 60  1  0
 23 61  1  0
 25 62  1  0
 25 63  1  0
 26 64  1  0
 26 65  1  0
 27 66  1  0
 27 67  1  0
 28 68  1  0
 28 69  1  0
 29 70  1  0
 29 71  1  0
 30 72  1  0
 30 73  1  0
 31 74  1  0
 31 75  1  0
 31 76  1  0
M  END
$$$$
