
     RDKit          3D

 55 57  0  0  0  0  0  0  0  0999 V2000
   -7.1786    1.7675   -2.1258 C   0  0  0  0  0  0  0  0  0  0  0  0
   -7.1007    0.8321   -1.0549 O   0  0  0  0  0  0  0  0  0  0  0  0
   -5.9026    0.3657   -0.4902 C   0  0  0  0  0  0  0  0  0  0  0  0
   -4.6456    0.7959   -0.9486 C   0  0  0  0  0  0  0  0  0  0  0  0
   -3.4731    0.3114   -0.3640 C   0  0  0  0  0  0  0  0  0  0  0  0
   -3.5330   -0.6190    0.6971 C   0  0  0  0  0  0  0  0  0  0  0  0
   -4.7962   -1.0470    1.1533 C   0  0  0  0  0  0  0  0  0  0  0  0
   -5.9786   -0.5572    0.5624 C   0  0  0  0  0  0  0  0  0  0  0  0
   -7.2521   -0.9639    0.9938 O   0  0  0  0  0  0  0  0  0  0  0  0
   -7.4942   -1.8912    2.0471 C   0  0  0  0  0  0  0  0  0  0  0  0
   -2.3052   -1.0693    1.2435 C   0  0  0  0  0  0  0  0  0  0  0  0
   -2.2303   -2.0116    2.3214 N   0  0  0  0  0  0  0  0  0  0  0  0
   -1.1391   -0.5940    0.7318 N   0  0  0  0  0  0  0  0  0  0  0  0
   -1.1055    0.3024   -0.2890 C   0  0  0  0  0  0  0  0  0  0  0  0
   -2.2723    0.7438   -0.8252 N   0  0  0  0  0  0  0  0  0  0  0  0
    0.1560    0.7809   -0.7994 N   0  0  0  0  0  0  0  0  0  0  0  0
    0.1699    1.7465   -1.9026 C   0  0  0  0  0  0  0  0  0  0  0  0
    1.4229    0.3220   -0.2127 C   0  0  0  0  0  0  0  0  0  0  0  0
    1.7281    1.1043    1.0707 C   0  0  0  0  0  0  0  0  0  0  0  0
    2.9968    0.6009    1.7664 C   0  0  0  0  0  0  0  0  0  0  0  0
    4.1814    0.8825    0.9558 N   0  0  0  0  0  0  0  0  0  0  0  0
    4.8435   -0.1175    0.1675 C   0  0  0  0  0  0  0  0  0  0  0  0
    4.4841   -1.3248    0.2368 O   0  0  0  0  0  0  0  0  0  0  0  0
    6.0083    0.2631   -0.7057 C   0  0  0  0  0  0  0  0  0  0  0  0
    7.3287    0.0965    0.0390 C   0  0  0  0  0  0  0  0  0  0  0  0
    7.8990   -1.1584   -0.5442 C   0  0  0  0  0  0  0  0  0  0  0  0
    7.2546   -1.2161   -1.9108 C   0  0  0  0  0  0  0  0  0  0  0  0
    6.0168   -0.5456   -1.8640 O   0  0  0  0  0  0  0  0  0  0  0  0
   -8.2450    1.9540   -2.3671 H   0  0  0  0  0  0  0  0  0  0  0  0
   -6.6766    1.3581   -3.0277 H   0  0  0  0  0  0  0  0  0  0  0  0
   -6.7083    2.7285   -1.8284 H   0  0  0  0  0  0  0  0  0  0  0  0
   -4.5678    1.5078   -1.7598 H   0  0  0  0  0  0  0  0  0  0  0  0
   -4.8806   -1.7540    1.9594 H   0  0  0  0  0  0  0  0  0  0  0  0
   -8.5888   -2.0230    2.1689 H   0  0  0  0  0  0  0  0  0  0  0  0
   -7.0436   -2.8758    1.8006 H   0  0  0  0  0  0  0  0  0  0  0  0
   -7.0752   -1.5048    3.0002 H   0  0  0  0  0  0  0  0  0  0  0  0
   -3.0607   -2.4383    2.7811 H   0  0  0  0  0  0  0  0  0  0  0  0
   -1.2936   -2.3015    2.6809 H   0  0  0  0  0  0  0  0  0  0  0  0
   -0.4005    2.6544   -1.6132 H   0  0  0  0  0  0  0  0  0  0  0  0
    1.2043    2.0596   -2.1584 H   0  0  0  0  0  0  0  0  0  0  0  0
   -0.2942    1.2927   -2.8034 H   0  0  0  0  0  0  0  0  0  0  0  0
    1.3680   -0.7677    0.0018 H   0  0  0  0  0  0  0  0  0  0  0  0
    2.2536    0.4607   -0.9376 H   0  0  0  0  0  0  0  0  0  0  0  0
    0.8769    0.9994    1.7772 H   0  0  0  0  0  0  0  0  0  0  0  0
    1.8396    2.1841    0.8297 H   0  0  0  0  0  0  0  0  0  0  0  0
    2.9085   -0.4846    1.9889 H   0  0  0  0  0  0  0  0  0  0  0  0
    3.1015    1.1260    2.7399 H   0  0  0  0  0  0  0  0  0  0  0  0
    4.4985    1.8755    0.8814 H   0  0  0  0  0  0  0  0  0  0  0  0
    5.8918    1.3237   -1.0192 H   0  0  0  0  0  0  0  0  0  0  0  0
    8.0005    0.9532   -0.1919 H   0  0  0  0  0  0  0  0  0  0  0  0
    7.2113    0.0172    1.1430 H   0  0  0  0  0  0  0  0  0  0  0  0
    7.5829   -2.0365    0.0616 H   0  0  0  0  0  0  0  0  0  0  0  0
    9.0081   -1.1203   -0.6099 H   0  0  0  0  0  0  0  0  0  0  0  0
    7.9074   -0.7172   -2.6603 H   0  0  0  0  0  0  0  0  0  0  0  0
    7.0986   -2.2711   -2.2212 H   0  0  0  0  0  0  0  0  0  0  0  0
  1  2  1  0
  2  3  1  0
  3  4  2  0
  4  5  1  0
  5  6  2  0
  6  7  1  0
  7  8  2  0
  8  9  1  0
  9 10  1  0
  6 11  1  0
 11 12  1  0
 11 13  2  0
 13 14  1  0
 14 15  2  0
 14 16  1  0
 16 17  1  0
 16 18  1  0
 18 19  1  0
 19 20  1  0
 20 21  1  0
 21 22  1  0
 22 23  2  0
 22 24  1  0
 24 25  1  0
 25 26  1  0
 26 27  1  0
 27 28  1  0
  8  3  1  0
 28 24  1  0
 15  5  1  0
  1 29  1  0
  1 30  1  0
  1 31  1  0
  4 32  1  0
  7 33  1  0
 10 34  1  0
 10 35  1  0
 10 36  1  0
 12 37  1  0
 12 38  1  0
 17 39  1  0
 17 40  1  0
 17 41  1  0
 18 42  1  0
 18 43  1  0
 19 44  1  0
 19 45  1  0
 20 46  1  0
 20 47  1  0
 21 48  1  0
 24 49  1  0
 25 50  1  0
 25 51  1  0
 26 52  1  0
 26 53  1  0
 27 54  1  0
 27 55  1  0
M  END
$$$$
