
     RDKit          3D

 51 53  0  0  0  0  0  0  0  0999 V2000
    7.2102   -0.6209   -0.0276 C   0  0  1  0  0  0  0  0  0  0  0  0
    8.1273   -1.4221    0.9031 C   0  0  0  0  0  0  0  0  0  0  0  0
    7.6223   -0.8303   -1.4914 C   0  0  0  0  0  0  0  0  0  0  0  0
    6.8700    0.0037   -2.3283 O   0  0  0  0  0  0  0  0  0  0  0  0
    5.8146   -1.0298    0.1676 N   0  0  0  0  0  0  0  0  0  0  0  0
    4.7091   -0.1757   -0.1613 C   0  0  0  0  0  0  0  0  0  0  0  0
    4.8938    1.0622   -0.3122 O   0  0  0  0  0  0  0  0  0  0  0  0
    3.3413   -0.7125   -0.2800 C   0  0  0  0  0  0  0  0  0  0  0  0
    2.9403   -1.9766   -0.7359 C   0  0  0  0  0  0  0  0  0  0  0  0
    3.8700   -3.0483   -1.2137 C   0  0  0  0  0  0  0  0  0  0  0  0
    1.5933   -2.1743   -0.7438 N   0  0  0  0  0  0  0  0  0  0  0  0
    0.9091   -1.0866   -0.3237 C   0  0  0  0  0  0  0  0  0  0  0  0
    1.9528    0.1709    0.0743 S   0  0  0  0  0  0  0  0  0  0  0  0
   -0.5596   -1.0205   -0.2401 C   0  0  0  0  0  0  0  0  0  0  0  0
   -1.1579    0.1223    0.1920 N   0  0  0  0  0  0  0  0  0  0  0  0
   -2.5110    0.2270    0.2783 C   0  0  0  0  0  0  0  0  0  0  0  0
   -3.0959    1.4419    0.7685 N   0  0  0  0  0  0  0  0  0  0  0  0
   -4.4983    1.7500    0.6959 C   0  0  0  0  0  0  0  0  0  0  0  0
   -5.0945    2.4843    1.7309 C   0  0  0  0  0  0  0  0  0  0  0  0
   -6.4514    2.8342    1.6694 C   0  0  0  0  0  0  0  0  0  0  0  0
   -7.0900    3.5820    2.8024 C   0  0  0  0  0  0  0  0  0  0  0  0
   -7.2216    2.4257    0.5709 C   0  0  0  0  0  0  0  0  0  0  0  0
   -6.6365    1.6970   -0.4748 C   0  0  0  0  0  0  0  0  0  0  0  0
   -7.4483    1.3225   -1.6796 C   0  0  0  0  0  0  0  0  0  0  0  0
   -5.2700    1.3848   -0.4208 C   0  0  0  0  0  0  0  0  0  0  0  0
   -3.2897   -0.8390   -0.0524 N   0  0  0  0  0  0  0  0  0  0  0  0
   -2.7390   -2.0001   -0.4895 C   0  0  0  0  0  0  0  0  0  0  0  0
   -1.3543   -2.1176   -0.5959 C   0  0  0  0  0  0  0  0  0  0  0  0
    7.3278    0.4537    0.2360 H   0  0  0  0  0  0  0  0  0  0  0  0
    8.0747   -2.5068    0.6668 H   0  0  0  0  0  0  0  0  0  0  0  0
    7.8178   -1.2703    1.9591 H   0  0  0  0  0  0  0  0  0  0  0  0
    9.1788   -1.0800    0.7954 H   0  0  0  0  0  0  0  0  0  0  0  0
    8.7025   -0.5889   -1.6120 H   0  0  0  0  0  0  0  0  0  0  0  0
    7.4601   -1.8946   -1.7768 H   0  0  0  0  0  0  0  0  0  0  0  0
    7.1648   -0.1966   -3.2544 H   0  0  0  0  0  0  0  0  0  0  0  0
    5.6140   -1.9562    0.6064 H   0  0  0  0  0  0  0  0  0  0  0  0
    4.2481   -3.6306   -0.3485 H   0  0  0  0  0  0  0  0  0  0  0  0
    4.7197   -2.6066   -1.7752 H   0  0  0  0  0  0  0  0  0  0  0  0
    3.3311   -3.7402   -1.8947 H   0  0  0  0  0  0  0  0  0  0  0  0
   -2.4716    2.1048    1.2818 H   0  0  0  0  0  0  0  0  0  0  0  0
   -4.4999    2.7784    2.5877 H   0  0  0  0  0  0  0  0  0  0  0  0
   -7.9288    4.2105    2.4343 H   0  0  0  0  0  0  0  0  0  0  0  0
   -7.4798    2.8587    3.5486 H   0  0  0  0  0  0  0  0  0  0  0  0
   -6.3527    4.2503    3.2963 H   0  0  0  0  0  0  0  0  0  0  0  0
   -8.2737    2.6821    0.5259 H   0  0  0  0  0  0  0  0  0  0  0  0
   -7.3901    2.1370   -2.4315 H   0  0  0  0  0  0  0  0  0  0  0  0
   -8.5116    1.1609   -1.4017 H   0  0  0  0  0  0  0  0  0  0  0  0
   -7.0662    0.3829   -2.1327 H   0  0  0  0  0  0  0  0  0  0  0  0
   -4.8081    0.8754   -1.2569 H   0  0  0  0  0  0  0  0  0  0  0  0
   -3.3771   -2.8334   -0.7518 H   0  0  0  0  0  0  0  0  0  0  0  0
   -0.9161   -3.0447   -0.9437 H   0  0  0  0  0  0  0  0  0  0  0  0
  1  2  1  0
  1  3  1  0
  3  4  1  0
  1  5  1  0
  5  6  1  0
  6  7  2  0
  6  8  1  0
  8  9  2  0
  9 10  1  0
  9 11  1  0
 11 12  2  0
 12 13  1  0
 12 14  1  0
 14 15  2  0
 15 16  1  0
 16 17  1  0
 17 18  1  0
 18 19  2  0
 19 20  1  0
 20 21  1  0
 20 22  2  0
 22 23  1  0
 23 24  1  0
 23 25  2  0
 16 26  2  0
 26 27  1  0
 27 28  2  0
 13  8  1  0
 28 14  1  0
 25 18  1  0
  1 29  1  1
  2 30  1  0
  2 31  1  0
  2 32  1  0
  3 33  1  0
  3 34  1  0
  4 35  1  0
  5 36  1  0
 10 37  1  0
 10 38  1  0
 10 39  1  0
 17 40  1  0
 19 41  1  0
 21 42  1  0
 21 43  1  0
 21 44  1  0
 22 45  1  0
 24 46  1  0
 24 47  1  0
 24 48  1  0
 25 49  1  0
 27 50  1  0
 28 51  1  0
M  END
$$$$
