
     RDKit          3D

 42 45  0  0  0  0  0  0  0  0999 V2000
    0.4551   -0.8562    1.0538 O   0  0  0  0  0  0  0  0  0  0  0  0
    0.1819   -0.3918   -0.0455 C   0  0  0  0  0  0  0  0  0  0  0  0
   -1.2635   -0.1611   -0.4462 C   0  0  0  0  0  0  0  0  0  0  0  0
   -2.2211   -1.0947    0.2765 C   0  0  0  0  0  0  0  0  0  0  0  0
   -2.8270   -2.1567   -0.4211 C   0  0  0  0  0  0  0  0  0  0  0  0
   -3.7028   -3.0278    0.2338 C   0  0  0  0  0  0  0  0  0  0  0  0
   -3.9800   -2.8537    1.5913 C   0  0  0  0  0  0  0  0  0  0  0  0
   -3.3795   -1.8097    2.2979 C   0  0  0  0  0  0  0  0  0  0  0  0
   -2.5031   -0.9356    1.6483 C   0  0  0  0  0  0  0  0  0  0  0  0
   -1.6864    1.2899   -0.2897 C   0  0  0  0  0  0  0  0  0  0  0  0
   -1.2189    2.0934    0.7710 C   0  0  0  0  0  0  0  0  0  0  0  0
   -1.6523    3.4158    0.9024 C   0  0  0  0  0  0  0  0  0  0  0  0
   -2.5644    3.9487   -0.0108 C   0  0  0  0  0  0  0  0  0  0  0  0
   -3.0493    3.1584   -1.0548 C   0  0  0  0  0  0  0  0  0  0  0  0
   -2.6186    1.8354   -1.1915 C   0  0  0  0  0  0  0  0  0  0  0  0
    1.2954   -0.0111   -0.9913 C   0  0  0  0  0  0  0  0  0  0  0  0
    2.2977    0.8974   -0.3318 C   0  0  0  0  0  0  0  0  0  0  0  0
    2.0466    2.0549    0.0968 O   0  0  0  0  0  0  0  0  0  0  0  0
    3.6070    0.2610   -0.2824 C   0  0  0  0  0  0  0  0  0  0  0  0
    4.8080    0.7396    0.2424 C   0  0  0  0  0  0  0  0  0  0  0  0
    5.9442   -0.0836    0.1594 C   0  0  0  0  0  0  0  0  0  0  0  0
    5.8591   -1.3564   -0.4416 C   0  0  0  0  0  0  0  0  0  0  0  0
    4.6373   -1.8146   -0.9638 C   0  0  0  0  0  0  0  0  0  0  0  0
    3.5241   -0.9787   -0.8681 C   0  0  0  0  0  0  0  0  0  0  0  0
    2.1573   -1.1986   -1.3214 C   0  0  0  0  0  0  0  0  0  0  0  0
    1.7574   -2.2325   -1.9196 O   0  0  0  0  0  0  0  0  0  0  0  0
   -1.3119   -0.3971   -1.5333 H   0  0  0  0  0  0  0  0  0  0  0  0
   -2.6234   -2.3127   -1.4732 H   0  0  0  0  0  0  0  0  0  0  0  0
   -4.1658   -3.8398   -0.3119 H   0  0  0  0  0  0  0  0  0  0  0  0
   -4.6578   -3.5297    2.0964 H   0  0  0  0  0  0  0  0  0  0  0  0
   -3.5910   -1.6789    3.3513 H   0  0  0  0  0  0  0  0  0  0  0  0
   -2.0422   -0.1410    2.2189 H   0  0  0  0  0  0  0  0  0  0  0  0
   -0.5209    1.7013    1.4989 H   0  0  0  0  0  0  0  0  0  0  0  0
   -1.2835    4.0268    1.7161 H   0  0  0  0  0  0  0  0  0  0  0  0
   -2.8998    4.9724    0.0940 H   0  0  0  0  0  0  0  0  0  0  0  0
   -3.7625    3.5698   -1.7573 H   0  0  0  0  0  0  0  0  0  0  0  0
   -3.0137    1.2347   -2.0016 H   0  0  0  0  0  0  0  0  0  0  0  0
    0.9113    0.4565   -1.9235 H   0  0  0  0  0  0  0  0  0  0  0  0
    4.8653    1.7180    0.7015 H   0  0  0  0  0  0  0  0  0  0  0  0
    6.8891    0.2615    0.5585 H   0  0  0  0  0  0  0  0  0  0  0  0
    6.7389   -1.9837   -0.5017 H   0  0  0  0  0  0  0  0  0  0  0  0
    4.5639   -2.7899   -1.4272 H   0  0  0  0  0  0  0  0  0  0  0  0
  1  2  2  0
  2  3  1  0
  3  4  1  0
  4  5  2  0
  5  6  1  0
  6  7  2  0
  7  8  1  0
  8  9  2  0
  3 10  1  0
 10 11  2  0
 11 12  1  0
 12 13  2  0
 13 14  1  0
 14 15  2  0
  2 16  1  0
 16 17  1  0
 17 18  2  0
 17 19  1  0
 19 20  2  0
 20 21  1  0
 21 22  2  0
 22 23  1  0
 23 24  2  0
 24 25  1  0
 25 26  2  0
  9  4  1  0
 15 10  1  0
 25 16  1  0
 24 19  1  0
  3 27  1  0
  5 28  1  0
  6 29  1  0
  7 30  1  0
  8 31  1  0
  9 32  1  0
 11 33  1  0
 12 34  1  0
 13 35  1  0
 14 36  1  0
 15 37  1  0
 16 38  1  0
 20 39  1  0
 21 40  1  0
 22 41  1  0
 23 42  1  0
M  END
$$$$
