
     RDKit          3D

 49 51  0  0  0  0  0  0  0  0999 V2000
   -5.3734   -2.8857   -0.4201 O   0  0  0  0  0  1  0  0  0  0  0  0
   -5.4497   -1.8447   -1.3184 N   0  0  0  0  0  4  0  0  0  0  0  0
   -6.5595   -1.7551   -2.1045 C   0  0  0  0  0  0  0  0  0  0  0  0
   -6.7056   -0.7025   -3.0076 C   0  0  0  0  0  0  0  0  0  0  0  0
   -5.7087    0.2650   -3.0937 C   0  0  0  0  0  0  0  0  0  0  0  0
   -4.5756    0.1665   -2.2879 C   0  0  0  0  0  0  0  0  0  0  0  0
   -4.4384   -0.9197   -1.4032 C   0  0  0  0  0  0  0  0  0  0  0  0
   -3.2221   -1.0058   -0.4993 C   0  0  0  0  0  0  0  0  0  0  0  0
   -2.8285   -2.3264   -0.3592 F   0  0  0  0  0  0  0  0  0  0  0  0
   -2.1592   -0.3144   -1.0590 F   0  0  0  0  0  0  0  0  0  0  0  0
   -3.5509   -0.4193    0.8802 C   0  0  0  0  0  0  0  0  0  0  0  0
   -2.4001   -0.5240    1.7773 N   0  0  0  0  0  0  0  0  0  0  0  0
   -1.3252    0.4325    1.7814 C   0  0  0  0  0  0  0  0  0  0  0  0
   -1.4042    1.5474    1.0109 N   0  0  0  0  0  0  0  0  0  0  0  0
   -0.4109    2.4664    0.9894 C   0  0  0  0  0  0  0  0  0  0  0  0
    0.7281    2.2778    1.7736 C   0  0  0  0  0  0  0  0  0  0  0  0
    1.9829    3.5165    1.6878 Cl  0  0  0  0  0  0  0  0  0  0  0  0
    0.8339    1.1597    2.5694 N   0  0  0  0  0  0  0  0  0  0  0  0
    2.0375    0.9130    3.3893 C   0  0  0  0  0  0  0  0  0  0  0  0
    2.9092   -0.1255    2.7443 C   0  0  0  0  0  0  0  0  0  0  0  0
    3.1335   -1.2095    3.3484 O   0  0  0  0  0  0  0  0  0  0  0  0
    3.4763    0.1086    1.4493 N   0  0  0  0  0  0  0  0  0  0  0  0
    4.2702   -0.9119    0.7674 C   0  0  0  0  0  0  0  0  0  0  0  0
    4.6883   -0.4307   -0.5973 C   0  0  0  0  0  0  0  0  0  0  0  0
    5.8470    0.3515   -0.7581 C   0  0  0  0  0  0  0  0  0  0  0  0
    6.6276    0.6579    0.3090 F   0  0  0  0  0  0  0  0  0  0  0  0
    6.2020    0.8274   -2.0249 C   0  0  0  0  0  0  0  0  0  0  0  0
    5.4014    0.5391   -3.1333 C   0  0  0  0  0  0  0  0  0  0  0  0
    4.2398   -0.2214   -2.9776 C   0  0  0  0  0  0  0  0  0  0  0  0
    3.8796   -0.7001   -1.7144 C   0  0  0  0  0  0  0  0  0  0  0  0
   -0.1838    0.2339    2.5780 C   0  0  0  0  0  0  0  0  0  0  0  0
   -0.0988   -0.8023    3.2947 O   0  0  0  0  0  0  0  0  0  0  0  0
   -7.3417   -2.5000   -2.0257 H   0  0  0  0  0  0  0  0  0  0  0  0
   -7.5898   -0.6329   -3.6280 H   0  0  0  0  0  0  0  0  0  0  0  0
   -5.8158    1.0945   -3.7808 H   0  0  0  0  0  0  0  0  0  0  0  0
   -3.8164    0.9355   -2.3537 H   0  0  0  0  0  0  0  0  0  0  0  0
   -4.4010   -0.9822    1.3239 H   0  0  0  0  0  0  0  0  0  0  0  0
   -3.8700    0.6421    0.7884 H   0  0  0  0  0  0  0  0  0  0  0  0
   -2.3870   -1.3202    2.4542 H   0  0  0  0  0  0  0  0  0  0  0  0
   -0.5076    3.3419    0.3608 H   0  0  0  0  0  0  0  0  0  0  0  0
    1.7364    0.5759    4.4062 H   0  0  0  0  0  0  0  0  0  0  0  0
    2.6327    1.8326    3.5547 H   0  0  0  0  0  0  0  0  0  0  0  0
    3.3001    1.0262    0.9817 H   0  0  0  0  0  0  0  0  0  0  0  0
    3.6704   -1.8435    0.6728 H   0  0  0  0  0  0  0  0  0  0  0  0
    5.1666   -1.1541    1.3782 H   0  0  0  0  0  0  0  0  0  0  0  0
    7.0963    1.4249   -2.1475 H   0  0  0  0  0  0  0  0  0  0  0  0
    5.6778    0.9104   -4.1116 H   0  0  0  0  0  0  0  0  0  0  0  0
    3.6158   -0.4366   -3.8354 H   0  0  0  0  0  0  0  0  0  0  0  0
    2.9703   -1.2785   -1.6069 H   0  0  0  0  0  0  0  0  0  0  0  0
  1  2  1  0
  2  3  2  0
  3  4  1  0
  4  5  2  0
  5  6  1  0
  6  7  2  0
  7  8  1  0
  8  9  1  0
  8 10  1  0
  8 11  1  0
 11 12  1  0
 12 13  1  0
 13 14  2  0
 14 15  1  0
 15 16  2  0
 16 17  1  0
 16 18  1  0
 18 19  1  0
 19 20  1  0
 20 21  2  0
 20 22  1  0
 22 23  1  0
 23 24  1  0
 24 25  2  0
 25 26  1  0
 25 27  1  0
 27 28  2  0
 28 29  1  0
 29 30  2  0
 18 31  1  0
 31 32  2  0
  7  2  1  0
 31 13  1  0
 30 24  1  0
  3 33  1  0
  4 34  1  0
  5 35  1  0
  6 36  1  0
 11 37  1  0
 11 38  1  0
 12 39  1  0
 15 40  1  0
 19 41  1  0
 19 42  1  0
 22 43  1  0
 23 44  1  0
 23 45  1  0
 27 46  1  0
 28 47  1  0
 29 48  1  0
 30 49  1  0
M  CHG  2   1  -1   2   1
M  END
$$$$
