
     RDKit          3D

 32 34  0  0  0  0  0  0  0  0999 V2000
    3.5416   -2.2807    0.8688 N   0  0  0  0  0  0  0  0  0  0  0  0
    3.3172   -0.9268    0.4650 C   0  0  0  0  0  0  0  0  0  0  0  0
    4.3994   -0.0361    0.3139 C   0  0  0  0  0  0  0  0  0  0  0  0
    4.1789    1.2976   -0.0846 C   0  0  0  0  0  0  0  0  0  0  0  0
    2.8771    1.7572   -0.3365 C   0  0  0  0  0  0  0  0  0  0  0  0
    1.8235    0.8594   -0.1797 C   0  0  0  0  0  0  0  0  0  0  0  0
    2.0242   -0.4489    0.2092 C   0  0  0  0  0  0  0  0  0  0  0  0
    0.7154   -1.1882    0.2943 C   0  0  0  0  0  0  0  0  0  0  0  0
   -0.2760   -0.1756   -0.0833 N   0  0  0  0  0  0  0  0  0  0  0  0
   -1.7226   -0.4094   -0.1419 C   0  0  0  0  0  0  0  0  0  0  0  0
   -2.4382    0.4150    0.9436 C   0  0  0  0  0  0  0  0  0  0  0  0
   -3.9593    0.2568    0.8515 C   0  0  0  0  0  0  0  0  0  0  0  0
   -4.4434    0.6152   -0.5232 C   0  0  0  0  0  0  0  0  0  0  0  0
   -5.6135    1.0543   -0.6805 O   0  0  0  0  0  0  0  0  0  0  0  0
   -3.6016    0.4069   -1.6625 N   0  0  0  0  0  0  0  0  0  0  0  0
   -2.2663   -0.0890   -1.5128 C   0  0  0  0  0  0  0  0  0  0  0  0
   -1.5708   -0.3215   -2.5380 O   0  0  0  0  0  0  0  0  0  0  0  0
    0.4077    1.0447   -0.3663 C   0  0  0  0  0  0  0  0  0  0  0  0
   -0.1526    2.1102   -0.7373 O   0  0  0  0  0  0  0  0  0  0  0  0
    4.5092   -2.6258    1.0566 H   0  0  0  0  0  0  0  0  0  0  0  0
    2.7477   -2.9487    0.9838 H   0  0  0  0  0  0  0  0  0  0  0  0
    5.4107   -0.3728    0.5035 H   0  0  0  0  0  0  0  0  0  0  0  0
    5.0182    1.9714   -0.1975 H   0  0  0  0  0  0  0  0  0  0  0  0
    2.6988    2.7797   -0.6434 H   0  0  0  0  0  0  0  0  0  0  0  0
    0.6957   -2.0334   -0.4261 H   0  0  0  0  0  0  0  0  0  0  0  0
    0.5309   -1.5388    1.3320 H   0  0  0  0  0  0  0  0  0  0  0  0
   -1.9229   -1.4862    0.0537 H   0  0  0  0  0  0  0  0  0  0  0  0
   -2.1818    1.4921    0.8420 H   0  0  0  0  0  0  0  0  0  0  0  0
   -2.0970    0.0778    1.9464 H   0  0  0  0  0  0  0  0  0  0  0  0
   -4.4416    0.9163    1.6051 H   0  0  0  0  0  0  0  0  0  0  0  0
   -4.2422   -0.7948    1.0726 H   0  0  0  0  0  0  0  0  0  0  0  0
   -3.9663    0.6221   -2.6178 H   0  0  0  0  0  0  0  0  0  0  0  0
  1  2  1  0
  2  3  2  0
  3  4  1  0
  4  5  2  0
  5  6  1  0
  6  7  2  0
  7  8  1  0
  8  9  1  0
  9 10  1  0
 10 11  1  0
 11 12  1  0
 12 13  1  0
 13 14  2  0
 13 15  1  0
 15 16  1  0
 16 17  2  0
  9 18  1  0
 18 19  2  0
  7  2  1  0
 16 10  1  0
 18  6  1  0
  1 20  1  0
  1 21  1  0
  3 22  1  0
  4 23  1  0
  5 24  1  0
  8 25  1  0
  8 26  1  0
 10 27  1  0
 11 28  1  0
 11 29  1  0
 12 30  1  0
 12 31  1  0
 15 32  1  0
M  END
$$$$
