
     RDKit          3D

 35 38  0  0  0  0  0  0  0  0999 V2000
   -2.1007    1.5275    2.4558 N   0  0  0  0  0  0  0  0  0  0  0  0
   -2.2932    0.3386    1.6900 C   0  0  0  0  0  0  0  0  0  0  0  0
   -1.2377   -0.2014    1.0078 N   0  0  0  0  0  0  0  0  0  0  0  0
   -1.4491   -1.3298    0.2894 C   0  0  0  0  0  0  0  0  0  0  0  0
   -2.6564   -1.9309    0.2181 C   0  0  0  0  0  0  0  0  0  0  0  0
   -2.6015   -3.0109   -0.5840 N   0  0  0  0  0  0  0  0  0  0  0  0
   -1.2991   -3.0210   -0.9833 C   0  0  0  0  0  0  0  0  0  0  0  0
   -0.5648   -2.0081   -0.4544 N   0  0  0  0  0  0  0  0  0  0  0  0
    0.8300   -1.6761   -0.7547 C   0  0  2  0  0  0  0  0  0  0  0  0
    1.4523   -1.1378    0.4009 O   0  0  0  0  0  0  0  0  0  0  0  0
    2.1050    0.0314   -0.0238 C   0  0  2  0  0  0  0  0  0  0  0  0
    2.2728    1.0816    1.0998 C   0  0  0  0  0  0  0  0  0  0  0  0
    1.9784    2.4175    0.7118 O   0  0  0  0  0  0  0  0  0  0  0  0
    2.5782    2.7349   -0.8642 P   0  0  0  0  0  5  0  0  0  0  0  0
    1.9785    4.2219   -1.4012 O   0  0  0  0  0  0  0  0  0  0  0  0
    4.0889    2.7863   -0.8342 O   0  0  0  0  0  0  0  0  0  0  0  0
    2.0695    1.4999   -1.9347 O   0  0  0  0  0  0  0  0  0  0  0  0
    1.2988    0.6037   -1.1695 C   0  0  1  0  0  0  0  0  0  0  0  0
    0.9029   -0.6478   -1.9030 C   0  0  1  0  0  0  0  0  0  0  0  0
    1.8956   -1.0104   -2.8289 O   0  0  0  0  0  0  0  0  0  0  0  0
   -3.7375   -1.3949    0.9025 C   0  0  0  0  0  0  0  0  0  0  0  0
   -4.8750   -1.9338    0.8494 O   0  0  0  0  0  0  0  0  0  0  0  0
   -3.5323   -0.2582    1.6364 N   0  0  0  0  0  0  0  0  0  0  0  0
   -2.8928    1.9565    2.9837 H   0  0  0  0  0  0  0  0  0  0  0  0
   -1.1615    1.9823    2.4940 H   0  0  0  0  0  0  0  0  0  0  0  0
   -0.8966   -3.7570   -1.6674 H   0  0  0  0  0  0  0  0  0  0  0  0
    1.3672   -2.6090   -1.0381 H   0  0  0  0  0  0  0  0  0  0  0  0
    3.1216   -0.2488   -0.3904 H   0  0  0  0  0  0  0  0  0  0  0  0
    1.5930    0.8199    1.9384 H   0  0  0  0  0  0  0  0  0  0  0  0
    3.3080    1.0373    1.5030 H   0  0  0  0  0  0  0  0  0  0  0  0
    0.9944    4.1101   -1.3986 H   0  0  0  0  0  0  0  0  0  0  0  0
    0.3653    1.0985   -0.8065 H   0  0  0  0  0  0  0  0  0  0  0  0
   -0.0757   -0.5048   -2.4197 H   0  0  0  0  0  0  0  0  0  0  0  0
    1.5056   -1.7310   -3.3891 H   0  0  0  0  0  0  0  0  0  0  0  0
   -4.3320    0.1640    2.1607 H   0  0  0  0  0  0  0  0  0  0  0  0
  1  2  1  0
  2  3  2  0
  3  4  1  0
  4  5  2  0
  5  6  1  0
  6  7  2  0
  7  8  1  0
  8  9  1  0
  9 10  1  0
 10 11  1  0
 11 12  1  0
 12 13  1  0
 13 14  1  0
 14 15  1  0
 14 16  2  0
 14 17  1  0
 17 18  1  0
 18 19  1  0
 19 20  1  0
  5 21  1  0
 21 22  2  0
 21 23  1  0
 23  2  1  0
  8  4  1  0
 19  9  1  0
 18 11  1  0
  1 24  1  0
  1 25  1  0
  7 26  1  0
  9 27  1  6
 11 28  1  6
 12 29  1  0
 12 30  1  0
 15 31  1  0
 18 32  1  1
 19 33  1  6
 20 34  1  0
 23 35  1  0
M  END
$$$$
