
     RDKit          3D

 23 24  0  0  0  0  0  0  0  0999 V2000
    5.2512   -1.0457    1.3381 O   0  0  0  0  0  0  0  0  0  0  0  0
    4.1972   -0.3309    0.7781 C   0  0  0  0  0  0  0  0  0  0  0  0
    3.6518    0.6007    1.4281 O   0  0  0  0  0  0  0  0  0  0  0  0
    3.6962   -0.6893   -0.5832 C   0  0  0  0  0  0  0  0  0  0  0  0
    2.7527   -2.2495   -0.5242 S   0  0  0  0  0  0  0  0  0  0  0  0
    1.3065   -1.5139    0.2335 C   0  0  0  0  0  0  0  0  0  0  0  0
    1.0942   -1.4624    1.5613 N   0  0  0  0  0  0  0  0  0  0  0  0
   -0.0677   -0.8491    1.7249 N   0  0  0  0  0  0  0  0  0  0  0  0
   -0.5147   -0.5539    0.4895 C   0  0  0  0  0  0  0  0  0  0  0  0
    0.3237   -0.9604   -0.4331 O   0  0  0  0  0  0  0  0  0  0  0  0
   -1.7783    0.1349    0.2171 C   0  0  0  0  0  0  0  0  0  0  0  0
   -2.2686    0.4560   -1.0355 C   0  0  0  0  0  0  0  0  0  0  0  0
   -3.4736    1.0910   -0.8163 C   0  0  0  0  0  0  0  0  0  0  0  0
   -3.6318    1.1115    0.5567 C   0  0  0  0  0  0  0  0  0  0  0  0
   -2.6112    0.5374    1.1492 O   0  0  0  0  0  0  0  0  0  0  0  0
   -4.7422    1.6733    1.2598 N   0  0  0  0  0  4  0  0  0  0  0  0
   -4.7768    1.6277    2.6335 O   0  0  0  0  0  1  0  0  0  0  0  0
   -5.6837    2.2065    0.6378 O   0  0  0  0  0  0  0  0  0  0  0  0
    5.5959   -0.8227    2.2642 H   0  0  0  0  0  0  0  0  0  0  0  0
    3.0679    0.1278   -0.9997 H   0  0  0  0  0  0  0  0  0  0  0  0
    4.5651   -0.8292   -1.2593 H   0  0  0  0  0  0  0  0  0  0  0  0
   -1.8060    0.2532   -1.9925 H   0  0  0  0  0  0  0  0  0  0  0  0
   -4.1478    1.4869   -1.5641 H   0  0  0  0  0  0  0  0  0  0  0  0
  1  2  1  0
  2  3  2  0
  2  4  1  0
  4  5  1  0
  5  6  1  0
  6  7  2  0
  7  8  1  0
  8  9  2  0
  9 10  1  0
  9 11  1  0
 11 12  2  0
 12 13  1  0
 13 14  2  0
 14 15  1  0
 14 16  1  0
 16 17  1  0
 16 18  2  0
 10  6  1  0
 15 11  1  0
  1 19  1  0
  4 20  1  0
  4 21  1  0
 12 22  1  0
 13 23  1  0
M  CHG  2  16   1  17  -1
M  END
$$$$
