
     RDKit          3D

 55 58  0  0  0  0  0  0  0  0999 V2000
   -3.1431    2.9403    0.6115 C   0  0  0  0  0  0  0  0  0  0  0  0
   -3.5973    1.7466   -0.2592 C   0  0  0  0  0  0  0  0  0  0  0  0
   -3.9229    2.2663   -1.6820 C   0  0  0  0  0  0  0  0  0  0  0  0
   -4.9069    1.1440    0.3074 C   0  0  0  0  0  0  0  0  0  0  0  0
   -4.6627    0.3003    1.5523 C   0  0  0  0  0  0  0  0  0  0  0  0
   -3.7537   -0.9208    1.2651 C   0  0  0  0  0  0  0  0  0  0  0  0
   -3.3020   -1.4746    2.6399 C   0  0  0  0  0  0  0  0  0  0  0  0
   -4.5572   -2.0175    0.5293 C   0  0  0  0  0  0  0  0  0  0  0  0
   -2.5387   -0.5313    0.4081 C   0  0  0  0  0  0  0  0  0  0  0  0
   -2.4697    0.7037   -0.3044 C   0  0  0  0  0  0  0  0  0  0  0  0
   -1.2895    1.0049   -1.0185 C   0  0  0  0  0  0  0  0  0  0  0  0
   -0.2439    0.0916   -1.1096 C   0  0  0  0  0  0  0  0  0  0  0  0
   -0.3312   -1.1506   -0.4767 C   0  0  0  0  0  0  0  0  0  0  0  0
   -1.4821   -1.4591    0.2588 C   0  0  0  0  0  0  0  0  0  0  0  0
    0.7587   -2.1488   -0.6058 C   0  0  0  0  0  0  0  0  0  0  0  0
    0.4603   -3.3740   -0.6444 O   0  0  0  0  0  0  0  0  0  0  0  0
    2.1869   -1.7568   -0.6911 C   0  0  0  0  0  0  0  0  0  0  0  0
    2.6678   -0.6265   -0.0056 C   0  0  0  0  0  0  0  0  0  0  0  0
    4.0227   -0.2698   -0.0818 C   0  0  0  0  0  0  0  0  0  0  0  0
    4.9149   -1.0591   -0.8425 C   0  0  0  0  0  0  0  0  0  0  0  0
    4.4369   -2.1951   -1.5106 C   0  0  0  0  0  0  0  0  0  0  0  0
    3.0861   -2.5431   -1.4305 C   0  0  0  0  0  0  0  0  0  0  0  0
    6.2702   -0.7022   -0.9185 C   0  0  0  0  0  0  0  0  0  0  0  0
    6.7487    0.4351   -0.2425 C   0  0  0  0  0  0  0  0  0  0  0  0
    5.8522    1.2108    0.5122 C   0  0  0  0  0  0  0  0  0  0  0  0
    4.5017    0.8616    0.5926 C   0  0  0  0  0  0  0  0  0  0  0  0
    8.1773    0.8139   -0.3211 C   0  0  0  0  0  0  0  0  0  0  0  0
    8.6427    1.9410    0.3514 O   0  0  0  0  0  0  0  0  0  0  0  0
    8.9859    0.1213   -0.9967 O   0  0  0  0  0  0  0  0  0  0  0  0
   -3.9624    3.6826    0.7241 H   0  0  0  0  0  0  0  0  0  0  0  0
   -2.2766    3.4595    0.1489 H   0  0  0  0  0  0  0  0  0  0  0  0
   -2.8277    2.6046    1.6213 H   0  0  0  0  0  0  0  0  0  0  0  0
   -4.8327    2.9054   -1.6658 H   0  0  0  0  0  0  0  0  0  0  0  0
   -3.1042    2.8873   -2.1000 H   0  0  0  0  0  0  0  0  0  0  0  0
   -4.1071    1.4158   -2.3738 H   0  0  0  0  0  0  0  0  0  0  0  0
   -5.6246    1.9555    0.5613 H   0  0  0  0  0  0  0  0  0  0  0  0
   -5.4101    0.5173   -0.4601 H   0  0  0  0  0  0  0  0  0  0  0  0
   -5.6444   -0.0375    1.9527 H   0  0  0  0  0  0  0  0  0  0  0  0
   -4.2135    0.9421    2.3405 H   0  0  0  0  0  0  0  0  0  0  0  0
   -2.8078   -2.4639    2.5533 H   0  0  0  0  0  0  0  0  0  0  0  0
   -2.5948   -0.7702    3.1292 H   0  0  0  0  0  0  0  0  0  0  0  0
   -4.1770   -1.6126    3.3121 H   0  0  0  0  0  0  0  0  0  0  0  0
   -5.4830   -2.2724    1.0887 H   0  0  0  0  0  0  0  0  0  0  0  0
   -3.9566   -2.9466    0.4275 H   0  0  0  0  0  0  0  0  0  0  0  0
   -4.8394   -1.6915   -0.4933 H   0  0  0  0  0  0  0  0  0  0  0  0
   -1.1665    1.9559   -1.5167 H   0  0  0  0  0  0  0  0  0  0  0  0
    0.6276    0.3519   -1.6974 H   0  0  0  0  0  0  0  0  0  0  0  0
   -1.5445   -2.4318    0.7264 H   0  0  0  0  0  0  0  0  0  0  0  0
    1.9915   -0.0324    0.5981 H   0  0  0  0  0  0  0  0  0  0  0  0
    5.1071   -2.8144   -2.0949 H   0  0  0  0  0  0  0  0  0  0  0  0
    2.7400   -3.4232   -1.9585 H   0  0  0  0  0  0  0  0  0  0  0  0
    6.9505   -1.3109   -1.5032 H   0  0  0  0  0  0  0  0  0  0  0  0
    6.1937    2.0907    1.0428 H   0  0  0  0  0  0  0  0  0  0  0  0
    3.8320    1.4775    1.1812 H   0  0  0  0  0  0  0  0  0  0  0  0
    9.6185    2.2092    0.3042 H   0  0  0  0  0  0  0  0  0  0  0  0
  1  2  1  0
  2  3  1  0
  2  4  1  0
  4  5  1  0
  5  6  1  0
  6  7  1  0
  6  8  1  0
  6  9  1  0
  9 10  2  0
 10 11  1  0
 11 12  2  0
 12 13  1  0
 13 14  2  0
 13 15  1  0
 15 16  2  0
 15 17  1  0
 17 18  2  0
 18 19  1  0
 19 20  2  0
 20 21  1  0
 21 22  2  0
 20 23  1  0
 23 24  2  0
 24 25  1  0
 25 26  2  0
 24 27  1  0
 27 28  1  0
 27 29  2  0
 10  2  1  0
 22 17  1  0
 14  9  1  0
 26 19  1  0
  1 30  1  0
  1 31  1  0
  1 32  1  0
  3 33  1  0
  3 34  1  0
  3 35  1  0
  4 36  1  0
  4 37  1  0
  5 38  1  0
  5 39  1  0
  7 40  1  0
  7 41  1  0
  7 42  1  0
  8 43  1  0
  8 44  1  0
  8 45  1  0
 11 46  1  0
 12 47  1  0
 14 48  1  0
 18 49  1  0
 21 50  1  0
 22 51  1  0
 23 52  1  0
 25 53  1  0
 26 54  1  0
 28 55  1  0
M  END
$$$$
