
     RDKit          3D

 63 65  0  0  0  0  0  0  0  0999 V2000
   -1.4334   -2.2923   -1.0730 C   0  0  1  0  0  0  0  0  0  0  0  0
   -1.0634   -3.3297   -0.1974 O   0  0  0  0  0  0  0  0  0  0  0  0
   -2.9743   -2.2281   -1.2304 C   0  0  0  0  0  0  0  0  0  0  0  0
   -3.6948   -1.5623   -0.0533 C   0  0  0  0  0  0  0  0  0  0  0  0
   -3.1284   -0.1744    0.3786 C   0  0  0  0  0  0  0  0  0  0  0  0
   -3.5797    0.9227   -0.6173 C   0  0  0  0  0  0  0  0  0  0  0  0
   -3.7982    0.1316    1.7544 C   0  0  0  0  0  0  0  0  0  0  0  0
   -1.5520   -0.2813    0.5232 C   0  0  2  0  0  0  0  0  0  0  0  0
   -0.7722    0.8672    1.2924 C   0  0  2  0  0  0  0  0  0  0  0  0
   -1.6191    1.9416    1.6064 O   0  0  0  0  0  0  0  0  0  0  0  0
    0.5168    1.4310    0.6214 C   0  0  2  0  0  0  0  0  0  0  0  0
    0.1503    2.5141   -0.2479 O   0  0  0  0  0  0  0  0  0  0  0  0
    0.1138    3.8638    0.1247 C   0  0  0  0  0  0  0  0  0  0  0  0
   -0.3541    4.8781   -0.8615 C   0  0  0  0  0  0  0  0  0  0  0  0
    0.4313    4.2271    1.2896 O   0  0  0  0  0  0  0  0  0  0  0  0
    1.4689    0.3857   -0.1003 C   0  0  1  0  0  0  0  0  0  0  0  0
    2.0125    1.0571   -1.4196 C   0  0  0  0  0  0  0  0  0  0  0  0
    2.6108    0.2076    0.7388 O   0  0  0  0  0  0  0  0  0  0  0  0
    3.5234   -0.8655    0.4261 C   0  0  2  0  0  0  0  0  0  0  0  0
    4.9014   -0.2326    0.1559 C   0  0  0  0  0  0  0  0  0  0  0  0
    3.1597   -1.7944   -0.8044 C   0  0  0  0  0  0  0  0  0  0  0  0
    1.6939   -1.8236   -1.1356 C   0  0  0  0  0  0  0  0  0  0  0  0
    1.3039   -2.4725   -2.0924 O   0  0  0  0  0  0  0  0  0  0  0  0
    0.7590   -1.0212   -0.2546 C   0  0  1  0  0  0  0  0  0  0  0  0
    0.7799   -1.6155    1.0361 O   0  0  0  0  0  0  0  0  0  0  0  0
   -0.7729   -0.9003   -0.7113 C   0  0  1  0  0  0  0  0  0  0  0  0
   -0.8812   -0.0234   -1.9948 C   0  0  0  0  0  0  0  0  0  0  0  0
    3.6449   -1.7277    1.6771 C   0  0  0  0  0  0  0  0  0  0  0  0
    3.8484   -1.2032    2.8922 C   0  0  0  0  0  0  0  0  0  0  0  0
   -1.0721   -2.6039   -2.0750 H   0  0  0  0  0  0  0  0  0  0  0  0
   -1.5644   -3.2260    0.6501 H   0  0  0  0  0  0  0  0  0  0  0  0
   -3.3614   -3.2656   -1.3337 H   0  0  0  0  0  0  0  0  0  0  0  0
   -3.2633   -1.7210   -2.1721 H   0  0  0  0  0  0  0  0  0  0  0  0
   -3.6552   -2.2665    0.8076 H   0  0  0  0  0  0  0  0  0  0  0  0
   -4.7717   -1.4638   -0.3171 H   0  0  0  0  0  0  0  0  0  0  0  0
   -4.6434    1.1952   -0.4435 H   0  0  0  0  0  0  0  0  0  0  0  0
   -2.9719    1.8437   -0.5097 H   0  0  0  0  0  0  0  0  0  0  0  0
   -3.5316    0.5869   -1.6675 H   0  0  0  0  0  0  0  0  0  0  0  0
   -3.7920    1.2093    2.0092 H   0  0  0  0  0  0  0  0  0  0  0  0
   -3.3125   -0.4356    2.5771 H   0  0  0  0  0  0  0  0  0  0  0  0
   -4.8736   -0.1521    1.7428 H   0  0  0  0  0  0  0  0  0  0  0  0
   -1.5026   -1.0983    1.2757 H   0  0  0  0  0  0  0  0  0  0  0  0
   -0.4239    0.4187    2.2577 H   0  0  0  0  0  0  0  0  0  0  0  0
   -1.2658    2.3703    2.4299 H   0  0  0  0  0  0  0  0  0  0  0  0
    1.1188    1.8682    1.4513 H   0  0  0  0  0  0  0  0  0  0  0  0
    0.2040    5.8286   -0.7266 H   0  0  0  0  0  0  0  0  0  0  0  0
   -0.1860    4.5066   -1.8941 H   0  0  0  0  0  0  0  0  0  0  0  0
   -1.4381    5.0636   -0.7134 H   0  0  0  0  0  0  0  0  0  0  0  0
    2.6786    1.9024   -1.1417 H   0  0  0  0  0  0  0  0  0  0  0  0
    1.2385    1.4906   -2.0750 H   0  0  0  0  0  0  0  0  0  0  0  0
    2.6083    0.3953   -2.0669 H   0  0  0  0  0  0  0  0  0  0  0  0
    5.2154    0.4149    1.0022 H   0  0  0  0  0  0  0  0  0  0  0  0
    5.6732   -1.0188    0.0052 H   0  0  0  0  0  0  0  0  0  0  0  0
    4.8629    0.4038   -0.7534 H   0  0  0  0  0  0  0  0  0  0  0  0
    3.5018   -2.8383   -0.6352 H   0  0  0  0  0  0  0  0  0  0  0  0
    3.7062   -1.4745   -1.7177 H   0  0  0  0  0  0  0  0  0  0  0  0
    0.8802   -2.6007    0.9707 H   0  0  0  0  0  0  0  0  0  0  0  0
   -1.7628   -0.2449   -2.6167 H   0  0  0  0  0  0  0  0  0  0  0  0
   -0.0361   -0.2300   -2.6812 H   0  0  0  0  0  0  0  0  0  0  0  0
   -0.9436    1.0527   -1.7681 H   0  0  0  0  0  0  0  0  0  0  0  0
    3.5312   -2.8063    1.6122 H   0  0  0  0  0  0  0  0  0  0  0  0
    3.9461   -0.1315    3.0343 H   0  0  0  0  0  0  0  0  0  0  0  0
    3.9118   -1.8524    3.7594 H   0  0  0  0  0  0  0  0  0  0  0  0
  1  2  1  0
  1  3  1  0
  3  4  1  0
  4  5  1  0
  5  6  1  0
  5  7  1  0
  5  8  1  0
  8  9  1  0
  9 10  1  0
  9 11  1  0
 11 12  1  0
 12 13  1  0
 13 14  1  0
 13 15  2  0
 11 16  1  0
 16 17  1  6
 16 18  1  0
 18 19  1  0
 19 20  1  6
 19 21  1  0
 21 22  1  0
 22 23  2  0
 22 24  1  0
 24 25  1  1
 24 26  1  0
 26 27  1  6
 19 28  1  0
 28 29  2  3
 26  1  1  0
 26  8  1  0
 24 16  1  0
  1 30  1  6
  2 31  1  0
  3 32  1  0
  3 33  1  0
  4 34  1  0
  4 35  1  0
  6 36  1  0
  6 37  1  0
  6 38  1  0
  7 39  1  0
  7 40  1  0
  7 41  1  0
  8 42  1  1
  9 43  1  1
 10 44  1  0
 11 45  1  1
 14 46  1  0
 14 47  1  0
 14 48  1  0
 17 49  1  0
 17 50  1  0
 17 51  1  0
 20 52  1  0
 20 53  1  0
 20 54  1  0
 21 55  1  0
 21 56  1  0
 25 57  1  0
 27 58  1  0
 27 59  1  0
 27 60  1  0
 28 61  1  0
 29 62  1  0
 29 63  1  0
M  END
$$$$
