
     RDKit          3D

 65 68  0  0  0  0  0  0  0  0999 V2000
   -6.2747   -1.4241    1.2640 C   0  0  0  0  0  0  0  0  0  0  0  0
   -5.0493   -2.2827    1.3660 C   0  0  0  0  0  0  0  0  0  0  0  0
   -5.0268   -3.2016    2.2295 O   0  0  0  0  0  0  0  0  0  0  0  0
   -3.9137   -2.0754    0.4980 N   0  0  0  0  0  0  0  0  0  0  0  0
   -4.0430   -1.2214   -0.6933 C   0  0  0  0  0  0  0  0  0  0  0  0
   -2.7512   -1.1853   -1.5185 C   0  0  0  0  0  0  0  0  0  0  0  0
   -1.5870   -0.9912   -0.6411 N   0  0  0  0  0  0  0  0  0  0  0  0
   -1.4789   -1.7737    0.6020 C   0  0  0  0  0  0  0  0  0  0  0  0
   -2.6401   -2.7595    0.7599 C   0  0  0  0  0  0  0  0  0  0  0  0
   -0.4965   -0.1474   -1.0776 C   0  0  0  0  0  0  0  0  0  0  0  0
   -0.4016    0.1643   -2.2971 O   0  0  0  0  0  0  0  0  0  0  0  0
    0.5000    0.4539   -0.1009 C   0  0  2  0  0  0  0  0  0  0  0  0
    0.0901    1.9094    0.2212 C   0  0  0  0  0  0  0  0  0  0  0  0
   -1.2884    1.9865    0.8322 C   0  0  0  0  0  0  0  0  0  0  0  0
   -1.4813    1.6396    2.1773 C   0  0  0  0  0  0  0  0  0  0  0  0
   -2.7618    1.6586    2.7316 C   0  0  0  0  0  0  0  0  0  0  0  0
   -3.8596    2.0301    1.9524 C   0  0  0  0  0  0  0  0  0  0  0  0
   -3.6882    2.3871    0.6039 C   0  0  0  0  0  0  0  0  0  0  0  0
   -2.3947    2.3577    0.0497 C   0  0  0  0  0  0  0  0  0  0  0  0
   -4.8612    2.7818   -0.2177 C   0  0  0  0  0  0  0  0  0  0  0  0
   -5.9355    3.5198    0.3703 N   0  0  0  0  0  0  0  0  0  0  0  0
   -4.9386    2.4581   -1.4716 N   0  0  0  0  0  0  0  0  0  0  0  0
    1.8473    0.4107   -0.6986 N   0  0  0  0  0  0  0  0  0  0  0  0
    3.1028    0.7601    0.4612 S   0  0  0  0  0  6  0  0  0  0  0  0
    3.3408    2.2434    0.5170 O   0  0  0  0  0  0  0  0  0  0  0  0
    2.7250    0.2796    1.8359 O   0  0  0  0  0  0  0  0  0  0  0  0
    4.5858   -0.0453   -0.0429 C   0  0  0  0  0  0  0  0  0  0  0  0
    4.8316   -1.3677    0.3500 C   0  0  0  0  0  0  0  0  0  0  0  0
    5.9972   -2.0216   -0.0579 C   0  0  0  0  0  0  0  0  0  0  0  0
    6.9291   -1.3601   -0.8706 C   0  0  0  0  0  0  0  0  0  0  0  0
    8.1030   -2.0070   -1.2871 C   0  0  0  0  0  0  0  0  0  0  0  0
    9.0221   -1.3375   -2.1001 C   0  0  0  0  0  0  0  0  0  0  0  0
    8.7775   -0.0218   -2.5029 C   0  0  0  0  0  0  0  0  0  0  0  0
    7.6121    0.6339   -2.0953 C   0  0  0  0  0  0  0  0  0  0  0  0
    6.6812   -0.0265   -1.2780 C   0  0  0  0  0  0  0  0  0  0  0  0
    5.5075    0.6207   -0.8625 C   0  0  0  0  0  0  0  0  0  0  0  0
   -6.9974   -1.6794    2.0680 H   0  0  0  0  0  0  0  0  0  0  0  0
   -5.9956   -0.3551    1.3707 H   0  0  0  0  0  0  0  0  0  0  0  0
   -6.7672   -1.5837    0.2826 H   0  0  0  0  0  0  0  0  0  0  0  0
   -4.2866   -0.1885   -0.3733 H   0  0  0  0  0  0  0  0  0  0  0  0
   -4.8681   -1.5960   -1.3364 H   0  0  0  0  0  0  0  0  0  0  0  0
   -2.8364   -0.3622   -2.2608 H   0  0  0  0  0  0  0  0  0  0  0  0
   -2.6337   -2.1404   -2.0745 H   0  0  0  0  0  0  0  0  0  0  0  0
   -1.4924   -1.0850    1.4722 H   0  0  0  0  0  0  0  0  0  0  0  0
   -0.5236   -2.3423    0.6065 H   0  0  0  0  0  0  0  0  0  0  0  0
   -2.5211   -3.5991    0.0413 H   0  0  0  0  0  0  0  0  0  0  0  0
   -2.6061   -3.1801    1.7880 H   0  0  0  0  0  0  0  0  0  0  0  0
    0.5029   -0.1334    0.8386 H   0  0  0  0  0  0  0  0  0  0  0  0
    0.1417    2.5262   -0.7032 H   0  0  0  0  0  0  0  0  0  0  0  0
    0.8049    2.3561    0.9425 H   0  0  0  0  0  0  0  0  0  0  0  0
   -0.6409    1.3390    2.7909 H   0  0  0  0  0  0  0  0  0  0  0  0
   -2.9054    1.3774    3.7669 H   0  0  0  0  0  0  0  0  0  0  0  0
   -4.8450    2.0171    2.4003 H   0  0  0  0  0  0  0  0  0  0  0  0
   -2.2407    2.6341   -0.9859 H   0  0  0  0  0  0  0  0  0  0  0  0
   -6.7816    3.7584   -0.1937 H   0  0  0  0  0  0  0  0  0  0  0  0
   -5.8741    3.8798    1.3482 H   0  0  0  0  0  0  0  0  0  0  0  0
   -4.2040    1.9023   -1.9630 H   0  0  0  0  0  0  0  0  0  0  0  0
    2.0268   -0.5681   -1.0238 H   0  0  0  0  0  0  0  0  0  0  0  0
    4.1182   -1.8949    0.9706 H   0  0  0  0  0  0  0  0  0  0  0  0
    6.1684   -3.0435    0.2593 H   0  0  0  0  0  0  0  0  0  0  0  0
    8.3087   -3.0272   -0.9853 H   0  0  0  0  0  0  0  0  0  0  0  0
    9.9263   -1.8397   -2.4192 H   0  0  0  0  0  0  0  0  0  0  0  0
    9.4929    0.4911   -3.1327 H   0  0  0  0  0  0  0  0  0  0  0  0
    7.4392    1.6538   -2.4174 H   0  0  0  0  0  0  0  0  0  0  0  0
    5.3089    1.6382   -1.1779 H   0  0  0  0  0  0  0  0  0  0  0  0
  1  2  1  0
  2  3  2  0
  2  4  1  0
  4  5  1  0
  5  6  1  0
  6  7  1  0
  7  8  1  0
  8  9  1  0
  7 10  1  0
 10 11  2  0
 10 12  1  0
 12 13  1  0
 13 14  1  0
 14 15  2  0
 15 16  1  0
 16 17  2  0
 17 18  1  0
 18 19  2  0
 18 20  1  0
 20 21  1  0
 20 22  2  3
 12 23  1  0
 23 24  1  0
 24 25  2  0
 24 26  2  0
 24 27  1  0
 27 28  2  0
 28 29  1  0
 29 30  2  0
 30 31  1  0
 31 32  2  0
 32 33  1  0
 33 34  2  0
 34 35  1  0
 35 36  2  0
  9  4  1  0
 19 14  1  0
 36 27  1  0
 35 30  1  0
  1 37  1  0
  1 38  1  0
  1 39  1  0
  5 40  1  0
  5 41  1  0
  6 42  1  0
  6 43  1  0
  8 44  1  0
  8 45  1  0
  9 46  1  0
  9 47  1  0
 12 48  1  1
 13 49  1  0
 13 50  1  0
 15 51  1  0
 16 52  1  0
 17 53  1  0
 19 54  1  0
 21 55  1  0
 21 56  1  0
 22 57  1  0
 23 58  1  0
 28 59  1  0
 29 60  1  0
 31 61  1  0
 32 62  1  0
 33 63  1  0
 34 64  1  0
 36 65  1  0
M  END
$$$$
