
     RDKit          3D

 56 59  0  0  0  0  0  0  0  0999 V2000
    9.3537   -1.2575    0.5613 C   0  0  0  0  0  0  0  0  0  0  0  0
    8.0490   -0.8502    0.1690 O   0  0  0  0  0  0  0  0  0  0  0  0
    7.5697   -1.0097   -1.1353 C   0  0  0  0  0  0  0  0  0  0  0  0
    8.2915   -1.5430   -2.0221 O   0  0  0  0  0  0  0  0  0  0  0  0
    6.1734   -0.5644   -1.4770 C   0  0  0  0  0  0  0  0  0  0  0  0
    5.1398   -1.5156   -0.8279 C   0  0  0  0  0  0  0  0  0  0  0  0
    3.8063   -0.8114   -0.5678 C   0  0  0  0  0  0  0  0  0  0  0  0
    4.0124    0.3456    0.3186 N   0  0  0  0  0  0  0  0  0  0  0  0
    5.2748    1.0975    0.2614 C   0  0  0  0  0  0  0  0  0  0  0  0
    5.9575    0.9239   -1.1011 C   0  0  0  0  0  0  0  0  0  0  0  0
    3.0642    0.6492    1.3606 C   0  0  0  0  0  0  0  0  0  0  0  0
    3.4806    1.0978    2.4638 O   0  0  0  0  0  0  0  0  0  0  0  0
    1.6096    0.4492    1.1707 C   0  0  0  0  0  0  0  0  0  0  0  0
    1.0107    0.6745   -0.0788 C   0  0  0  0  0  0  0  0  0  0  0  0
   -0.3648    0.4933   -0.2495 C   0  0  0  0  0  0  0  0  0  0  0  0
   -1.1710    0.0920    0.8326 C   0  0  0  0  0  0  0  0  0  0  0  0
   -2.5905   -0.1047    0.6898 N   0  0  0  0  0  0  0  0  0  0  0  0
   -3.3029    0.0803   -0.5760 C   0  0  0  0  0  0  0  0  0  0  0  0
   -4.7660   -0.2068   -0.4073 C   0  0  0  0  0  0  0  0  0  0  0  0
   -5.6268    0.8092   -0.1254 N   0  0  0  0  0  0  0  0  0  0  0  0
   -6.9524    0.5754    0.0678 C   0  0  0  0  0  0  0  0  0  0  0  0
   -7.4400   -0.7394   -0.0151 C   0  0  0  0  0  0  0  0  0  0  0  0
   -6.5801   -1.7559   -0.2827 N   0  0  0  0  0  0  0  0  0  0  0  0
   -5.2551   -1.5204   -0.4762 C   0  0  0  0  0  0  0  0  0  0  0  0
   -8.7604   -0.9873    0.1764 N   0  0  0  0  0  0  0  0  0  0  0  0
   -9.6255    0.0261    0.4493 C   0  0  0  0  0  0  0  0  0  0  0  0
  -11.0094   -0.2527    0.6471 N   0  0  0  0  0  0  0  0  0  0  0  0
   -9.1709    1.3063    0.5346 N   0  0  0  0  0  0  0  0  0  0  0  0
   -7.8569    1.6076    0.3515 C   0  0  0  0  0  0  0  0  0  0  0  0
   -7.4261    2.9673    0.4514 N   0  0  0  0  0  0  0  0  0  0  0  0
   -0.5717   -0.1145    2.0845 C   0  0  0  0  0  0  0  0  0  0  0  0
    0.8035    0.0676    2.2544 C   0  0  0  0  0  0  0  0  0  0  0  0
    9.4726   -2.3511    0.4082 H   0  0  0  0  0  0  0  0  0  0  0  0
   10.1169   -0.7099   -0.0313 H   0  0  0  0  0  0  0  0  0  0  0  0
    9.4995   -1.0268    1.6364 H   0  0  0  0  0  0  0  0  0  0  0  0
    6.0513   -0.6393   -2.5816 H   0  0  0  0  0  0  0  0  0  0  0  0
    4.9731   -2.3938   -1.4891 H   0  0  0  0  0  0  0  0  0  0  0  0
    5.5171   -1.8983    0.1472 H   0  0  0  0  0  0  0  0  0  0  0  0
    3.1095   -1.5413   -0.1003 H   0  0  0  0  0  0  0  0  0  0  0  0
    3.3692   -0.4732   -1.5314 H   0  0  0  0  0  0  0  0  0  0  0  0
    5.9509    0.7483    1.0713 H   0  0  0  0  0  0  0  0  0  0  0  0
    5.0726    2.1799    0.4168 H   0  0  0  0  0  0  0  0  0  0  0  0
    6.9181    1.4850   -1.1119 H   0  0  0  0  0  0  0  0  0  0  0  0
    5.3057    1.3952   -1.8701 H   0  0  0  0  0  0  0  0  0  0  0  0
    1.6017    1.0136   -0.9196 H   0  0  0  0  0  0  0  0  0  0  0  0
   -0.7900    0.6759   -1.2267 H   0  0  0  0  0  0  0  0  0  0  0  0
   -3.1338   -0.3965    1.5353 H   0  0  0  0  0  0  0  0  0  0  0  0
   -2.8776   -0.5989   -1.3465 H   0  0  0  0  0  0  0  0  0  0  0  0
   -3.1741    1.1283   -0.9232 H   0  0  0  0  0  0  0  0  0  0  0  0
   -4.5885   -2.3486   -0.6798 H   0  0  0  0  0  0  0  0  0  0  0  0
  -11.3657   -1.2322    0.5836 H   0  0  0  0  0  0  0  0  0  0  0  0
  -11.6796    0.5199    0.8573 H   0  0  0  0  0  0  0  0  0  0  0  0
   -8.1177    3.7202    0.6635 H   0  0  0  0  0  0  0  0  0  0  0  0
   -6.4258    3.2350    0.3170 H   0  0  0  0  0  0  0  0  0  0  0  0
   -1.1721   -0.4182    2.9329 H   0  0  0  0  0  0  0  0  0  0  0  0
    1.2402   -0.1027    3.2310 H   0  0  0  0  0  0  0  0  0  0  0  0
  1  2  1  0
  2  3  1  0
  3  4  2  0
  3  5  1  0
  5  6  1  0
  6  7  1  0
  7  8  1  0
  8  9  1  0
  9 10  1  0
  8 11  1  0
 11 12  2  0
 11 13  1  0
 13 14  2  0
 14 15  1  0
 15 16  2  0
 16 17  1  0
 17 18  1  0
 18 19  1  0
 19 20  2  0
 20 21  1  0
 21 22  2  0
 22 23  1  0
 23 24  2  0
 22 25  1  0
 25 26  2  0
 26 27  1  0
 26 28  1  0
 28 29  2  0
 29 30  1  0
 16 31  1  0
 31 32  2  0
 10  5  1  0
 32 13  1  0
 24 19  1  0
 29 21  1  0
  1 33  1  0
  1 34  1  0
  1 35  1  0
  5 36  1  0
  6 37  1  0
  6 38  1  0
  7 39  1  0
  7 40  1  0
  9 41  1  0
  9 42  1  0
 10 43  1  0
 10 44  1  0
 14 45  1  0
 15 46  1  0
 17 47  1  0
 18 48  1  0
 18 49  1  0
 24 50  1  0
 27 51  1  0
 27 52  1  0
 30 53  1  0
 30 54  1  0
 31 55  1  0
 32 56  1  0
M  END
$$$$
