
     RDKit          3D

 60 62  0  0  0  0  0  0  0  0999 V2000
   -0.1615    2.9204    0.8053 C   0  0  0  0  0  0  0  0  0  0  0  0
   -0.9802    1.8017    1.1250 O   0  0  0  0  0  0  0  0  0  0  0  0
   -2.3615    1.7891    0.8978 C   0  0  0  0  0  0  0  0  0  0  0  0
   -2.9156    2.7558    0.3059 O   0  0  0  0  0  0  0  0  0  0  0  0
   -3.2100    0.6414    1.3937 C   0  0  2  0  0  0  0  0  0  0  0  0
   -2.4108   -0.3776    2.2198 C   0  0  0  0  0  0  0  0  0  0  0  0
   -3.9924    0.0016    0.3164 N   0  0  0  0  0  0  0  0  0  0  0  0
   -3.0145   -0.8563   -0.8815 P   0  0  0  0  0  5  0  0  0  0  0  0
   -3.8880   -1.1984   -2.0677 O   0  0  0  0  0  0  0  0  0  0  0  0
   -1.7350    0.1347   -1.4199 O   0  0  0  0  0  0  0  0  0  0  0  0
   -0.7200   -0.6907   -1.9398 C   0  0  0  0  0  0  0  0  0  0  0  0
    0.3773    0.1867   -2.5464 C   0  0  1  0  0  0  0  0  0  0  0  0
    0.8693    1.0678   -1.5686 O   0  0  0  0  0  0  0  0  0  0  0  0
    2.2069    1.3516   -1.9090 C   0  0  2  0  0  0  0  0  0  0  0  0
    2.7390    0.2577   -2.8360 C   0  0  0  0  0  0  0  0  0  0  0  0
    1.5501   -0.6408   -3.0673 C   0  0  2  0  0  0  0  0  0  0  0  0
    1.4039   -0.9309   -4.4328 O   0  0  0  0  0  0  0  0  0  0  0  0
    3.0286    1.4681   -0.6859 N   0  0  0  0  0  0  0  0  0  0  0  0
    3.8691    2.5383   -0.5524 C   0  0  0  0  0  0  0  0  0  0  0  0
    4.6682    2.6931    0.5920 C   0  0  0  0  0  0  0  0  0  0  0  0
    5.5731    3.8589    0.7729 C   0  0  0  0  0  0  0  0  0  0  0  0
    6.0812    4.5662   -0.2383 C   0  0  0  0  0  0  0  0  0  0  0  0
    7.2544    6.0318    0.1092 Br  0  0  0  0  0  0  0  0  0  0  0  0
    4.5604    1.7202    1.5963 C   0  0  0  0  0  0  0  0  0  0  0  0
    5.2414    1.8124    2.6542 O   0  0  0  0  0  0  0  0  0  0  0  0
    3.7270    0.6612    1.4299 N   0  0  0  0  0  0  0  0  0  0  0  0
    2.9740    0.5214    0.3068 C   0  0  0  0  0  0  0  0  0  0  0  0
    2.2256   -0.4881    0.1928 O   0  0  0  0  0  0  0  0  0  0  0  0
   -2.4094   -2.3194   -0.1960 O   0  0  0  0  0  0  0  0  0  0  0  0
   -3.2024   -3.3360    0.3557 C   0  0  0  0  0  0  0  0  0  0  0  0
   -2.5532   -4.4457    0.9123 C   0  0  0  0  0  0  0  0  0  0  0  0
   -3.2897   -5.4877    1.4835 C   0  0  0  0  0  0  0  0  0  0  0  0
   -4.6850   -5.4294    1.5023 C   0  0  0  0  0  0  0  0  0  0  0  0
   -5.3447   -4.3293    0.9493 C   0  0  0  0  0  0  0  0  0  0  0  0
   -4.6113   -3.2850    0.3768 C   0  0  0  0  0  0  0  0  0  0  0  0
   -0.2380    3.1547   -0.2773 H   0  0  0  0  0  0  0  0  0  0  0  0
    0.8938    2.6825    1.0505 H   0  0  0  0  0  0  0  0  0  0  0  0
   -0.4782    3.8029    1.4000 H   0  0  0  0  0  0  0  0  0  0  0  0
   -3.9448    1.0870    2.1000 H   0  0  0  0  0  0  0  0  0  0  0  0
   -2.0371    0.1019    3.1497 H   0  0  0  0  0  0  0  0  0  0  0  0
   -3.0625   -1.2299    2.5069 H   0  0  0  0  0  0  0  0  0  0  0  0
   -1.5350   -0.7596    1.6550 H   0  0  0  0  0  0  0  0  0  0  0  0
   -4.5401    0.7349   -0.1899 H   0  0  0  0  0  0  0  0  0  0  0  0
   -1.1176   -1.3581   -2.7393 H   0  0  0  0  0  0  0  0  0  0  0  0
   -0.2726   -1.3027   -1.1240 H   0  0  0  0  0  0  0  0  0  0  0  0
   -0.0621    0.7888   -3.3751 H   0  0  0  0  0  0  0  0  0  0  0  0
    2.2029    2.3159   -2.4682 H   0  0  0  0  0  0  0  0  0  0  0  0
    3.0971    0.7094   -3.7883 H   0  0  0  0  0  0  0  0  0  0  0  0
    3.5782   -0.3128   -2.3797 H   0  0  0  0  0  0  0  0  0  0  0  0
    1.6855   -1.5792   -2.4785 H   0  0  0  0  0  0  0  0  0  0  0  0
    0.7374   -1.6637   -4.4944 H   0  0  0  0  0  0  0  0  0  0  0  0
    3.8974    3.2920   -1.3283 H   0  0  0  0  0  0  0  0  0  0  0  0
    5.8721    4.1271    1.7789 H   0  0  0  0  0  0  0  0  0  0  0  0
    5.8772    4.3186   -1.2704 H   0  0  0  0  0  0  0  0  0  0  0  0
    3.6650   -0.0641    2.1812 H   0  0  0  0  0  0  0  0  0  0  0  0
   -1.4718   -4.4984    0.9040 H   0  0  0  0  0  0  0  0  0  0  0  0
   -2.7783   -6.3400    1.9119 H   0  0  0  0  0  0  0  0  0  0  0  0
   -5.2548   -6.2362    1.9449 H   0  0  0  0  0  0  0  0  0  0  0  0
   -6.4261   -4.2855    0.9638 H   0  0  0  0  0  0  0  0  0  0  0  0
   -5.1522   -2.4501   -0.0434 H   0  0  0  0  0  0  0  0  0  0  0  0
  1  2  1  0
  2  3  1  0
  3  4  2  0
  3  5  1  0
  5  6  1  0
  5  7  1  0
  7  8  1  0
  8  9  2  0
  8 10  1  0
 10 11  1  0
 11 12  1  0
 12 13  1  0
 13 14  1  0
 14 15  1  0
 15 16  1  0
 16 17  1  0
 14 18  1  0
 18 19  1  0
 19 20  2  0
 20 21  1  0
 21 22  2  0
 22 23  1  0
 20 24  1  0
 24 25  2  0
 24 26  1  0
 26 27  1  0
 27 28  2  0
  8 29  1  0
 29 30  1  0
 30 31  2  0
 31 32  1  0
 32 33  2  0
 33 34  1  0
 34 35  2  0
 16 12  1  0
 27 18  1  0
 35 30  1  0
  1 36  1  0
  1 37  1  0
  1 38  1  0
  5 39  1  1
  6 40  1  0
  6 41  1  0
  6 42  1  0
  7 43  1  0
 11 44  1  0
 11 45  1  0
 12 46  1  6
 14 47  1  6
 15 48  1  0
 15 49  1  0
 16 50  1  1
 17 51  1  0
 19 52  1  0
 21 53  1  0
 22 54  1  0
 26 55  1  0
 31 56  1  0
 32 57  1  0
 33 58  1  0
 34 59  1  0
 35 60  1  0
M  END
$$$$
