
     RDKit          3D

 55 55  0  0  0  0  0  0  0  0999 V2000
   -3.7312   -0.1369    0.7512 C   0  0  0  0  0  0  0  0  0  0  0  0
   -5.2261   -0.0331    0.6265 C   0  0  0  0  0  0  0  0  0  0  0  0
   -5.6281    1.1544   -0.2565 C   0  0  0  0  0  0  0  0  0  0  0  0
   -7.1515    1.2808   -0.3451 C   0  0  0  0  0  0  0  0  0  0  0  0
   -7.5310    2.4375   -1.2144 C   0  0  0  0  0  0  0  0  0  0  0  0
   -7.6657    2.2574   -2.5874 O   0  0  0  0  0  0  0  0  0  0  0  0
   -7.6891    3.5815   -0.7103 O   0  0  0  0  0  0  0  0  0  0  0  0
   -2.9662   -0.5330   -0.2774 C   0  0  0  0  0  0  0  0  0  0  0  0
   -1.4698   -0.6408   -0.1524 C   0  0  0  0  0  0  0  0  0  0  0  0
   -1.0441   -1.8272    0.7460 C   0  0  0  0  0  0  0  0  0  0  0  0
    0.4599   -1.8569    1.1146 C   0  0  0  0  0  0  0  0  0  0  0  0
    1.3419   -1.2013    0.0714 C   0  0  0  0  0  0  0  0  0  0  0  0
    1.9818   -0.0521    0.3131 C   0  0  0  0  0  0  0  0  0  0  0  0
    2.8191    0.6126   -0.7041 C   0  0  0  0  0  0  0  0  0  0  0  0
    2.9603    0.1063   -1.8508 O   0  0  0  0  0  0  0  0  0  0  0  0
    3.5375    1.8881   -0.3696 C   0  0  0  0  0  0  0  0  0  0  0  0
    4.7719    1.6436    0.5138 C   0  0  0  0  0  0  0  0  0  0  0  0
    5.8354    0.7202   -0.1147 C   0  0  0  0  0  0  0  0  0  0  0  0
    6.4277    1.2249   -1.4422 C   0  0  0  0  0  0  0  0  0  0  0  0
    7.1569    2.5603   -1.3013 C   0  0  0  0  0  0  0  0  0  0  0  0
    0.8241   -3.3561    1.2195 C   0  0  0  0  0  0  0  0  0  0  0  0
    0.5920   -3.8151    2.5269 O   0  0  0  0  0  0  0  0  0  0  0  0
   -0.1144   -4.0854    0.2554 C   0  0  0  0  0  0  0  0  0  0  0  0
   -1.2621   -3.1576    0.1055 C   0  0  0  0  0  0  0  0  0  0  0  0
   -2.3021   -3.4786   -0.4489 O   0  0  0  0  0  0  0  0  0  0  0  0
   -3.2732    0.0906    1.7101 H   0  0  0  0  0  0  0  0  0  0  0  0
   -5.6305   -0.9803    0.2067 H   0  0  0  0  0  0  0  0  0  0  0  0
   -5.6560    0.1045    1.6424 H   0  0  0  0  0  0  0  0  0  0  0  0
   -5.2048    2.0901    0.1721 H   0  0  0  0  0  0  0  0  0  0  0  0
   -5.2131    1.0155   -1.2794 H   0  0  0  0  0  0  0  0  0  0  0  0
   -7.5796    1.4264    0.6709 H   0  0  0  0  0  0  0  0  0  0  0  0
   -7.5826    0.3499   -0.7733 H   0  0  0  0  0  0  0  0  0  0  0  0
   -7.9062    3.0338   -3.1920 H   0  0  0  0  0  0  0  0  0  0  0  0
   -3.4240   -0.7599   -1.2364 H   0  0  0  0  0  0  0  0  0  0  0  0
   -1.0395   -0.7627   -1.1705 H   0  0  0  0  0  0  0  0  0  0  0  0
   -1.0782    0.3103    0.2705 H   0  0  0  0  0  0  0  0  0  0  0  0
   -1.6321   -1.8033    1.6905 H   0  0  0  0  0  0  0  0  0  0  0  0
    0.6078   -1.3590    2.1002 H   0  0  0  0  0  0  0  0  0  0  0  0
    1.4108   -1.6655   -0.9060 H   0  0  0  0  0  0  0  0  0  0  0  0
    1.8882    0.4179    1.2848 H   0  0  0  0  0  0  0  0  0  0  0  0
    2.8390    2.5601    0.1744 H   0  0  0  0  0  0  0  0  0  0  0  0
    3.8273    2.4218   -1.2994 H   0  0  0  0  0  0  0  0  0  0  0  0
    5.2306    2.6211    0.7727 H   0  0  0  0  0  0  0  0  0  0  0  0
    4.4403    1.1901    1.4734 H   0  0  0  0  0  0  0  0  0  0  0  0
    6.6613    0.5870    0.6176 H   0  0  0  0  0  0  0  0  0  0  0  0
    5.3947   -0.2863   -0.2816 H   0  0  0  0  0  0  0  0  0  0  0  0
    5.6380    1.3082   -2.2177 H   0  0  0  0  0  0  0  0  0  0  0  0
    7.1571    0.4680   -1.8037 H   0  0  0  0  0  0  0  0  0  0  0  0
    6.4365    3.3801   -1.0997 H   0  0  0  0  0  0  0  0  0  0  0  0
    7.9041    2.5111   -0.4809 H   0  0  0  0  0  0  0  0  0  0  0  0
    7.6866    2.7932   -2.2489 H   0  0  0  0  0  0  0  0  0  0  0  0
    1.8856   -3.5564    0.9374 H   0  0  0  0  0  0  0  0  0  0  0  0
    1.3565   -3.5018    3.0776 H   0  0  0  0  0  0  0  0  0  0  0  0
   -0.4442   -5.0648    0.6653 H   0  0  0  0  0  0  0  0  0  0  0  0
    0.3722   -4.2334   -0.7327 H   0  0  0  0  0  0  0  0  0  0  0  0
  1  2  1  0
  2  3  1  0
  3  4  1  0
  4  5  1  0
  5  6  1  0
  5  7  2  0
  1  8  2  3
  8  9  1  0
  9 10  1  0
 10 11  1  0
 11 12  1  0
 12 13  2  0
 13 14  1  0
 14 15  2  0
 14 16  1  0
 16 17  1  0
 17 18  1  0
 18 19  1  0
 19 20  1  0
 11 21  1  0
 21 22  1  0
 21 23  1  0
 23 24  1  0
 24 25  2  0
 24 10  1  0
  1 26  1  0
  2 27  1  0
  2 28  1  0
  3 29  1  0
  3 30  1  0
  4 31  1  0
  4 32  1  0
  6 33  1  0
  8 34  1  0
  9 35  1  0
  9 36  1  0
 10 37  1  0
 11 38  1  0
 12 39  1  0
 13 40  1  0
 16 41  1  0
 16 42  1  0
 17 43  1  0
 17 44  1  0
 18 45  1  0
 18 46  1  0
 19 47  1  0
 19 48  1  0
 20 49  1  0
 20 50  1  0
 20 51  1  0
 21 52  1  0
 22 53  1  0
 23 54  1  0
 23 55  1  0
M  END
$$$$
