
     RDKit          3D

 49 51  0  0  0  0  0  0  0  0999 V2000
    5.5838   -0.1714   -1.6453 C   0  0  0  0  0  0  0  0  0  0  0  0
    4.6563   -0.7481   -0.8653 C   0  0  0  0  0  0  0  0  0  0  0  0
    3.5288   -0.0099   -0.2444 C   0  0  0  0  0  0  0  0  0  0  0  0
    3.0483    1.2114   -0.7576 C   0  0  0  0  0  0  0  0  0  0  0  0
    1.9736    1.8630   -0.1451 C   0  0  0  0  0  0  0  0  0  0  0  0
    1.3623    1.3112    0.9897 C   0  0  0  0  0  0  0  0  0  0  0  0
    0.1748    1.9899    1.6153 C   0  0  0  0  0  0  0  0  0  0  0  0
   -1.0471    1.5911    0.9096 N   0  0  0  0  0  0  0  0  0  0  0  0
   -2.2171    2.2733    1.4777 C   0  0  0  0  0  0  0  0  0  0  0  0
   -3.4489    2.0659    0.5896 C   0  0  0  0  0  0  0  0  0  0  0  0
   -3.8932    0.6285    0.5715 C   0  0  0  0  0  0  0  0  0  0  0  0
   -4.7167   -0.0163    1.4969 C   0  0  0  0  0  0  0  0  0  0  0  0
   -5.3693    0.6233    2.6816 C   0  0  0  0  0  0  0  0  0  0  0  0
   -4.8338   -1.3318    1.1990 N   0  0  0  0  0  0  0  0  0  0  0  0
   -4.0875   -1.5274    0.0983 C   0  0  0  0  0  0  0  0  0  0  0  0
   -3.8770   -2.7305   -0.5743 C   0  0  0  0  0  0  0  0  0  0  0  0
   -3.0322   -2.7168   -1.6989 C   0  0  0  0  0  0  0  0  0  0  0  0
   -2.4205   -1.5154   -2.1197 C   0  0  0  0  0  0  0  0  0  0  0  0
   -2.6496   -0.3161   -1.4214 C   0  0  0  0  0  0  0  0  0  0  0  0
   -3.4965   -0.3587   -0.3124 C   0  0  0  0  0  0  0  0  0  0  0  0
    1.8165    0.0802    1.4840 C   0  0  0  0  0  0  0  0  0  0  0  0
    2.8900   -0.5731    0.8726 C   0  0  0  0  0  0  0  0  0  0  0  0
    6.7049   -0.9200   -2.2456 C   0  0  0  0  0  0  0  0  0  0  0  0
    7.6236   -0.1998   -3.0137 O   0  0  0  0  0  0  0  0  0  0  0  0
    6.8111   -2.2057   -2.0536 N   0  0  0  0  0  0  0  0  0  0  0  0
    7.8093   -3.0155   -2.5591 O   0  0  0  0  0  0  0  0  0  0  0  0
    5.5507    0.8915   -1.8394 H   0  0  0  0  0  0  0  0  0  0  0  0
    4.7454   -1.8029   -0.6324 H   0  0  0  0  0  0  0  0  0  0  0  0
    3.4752    1.6556   -1.6458 H   0  0  0  0  0  0  0  0  0  0  0  0
    1.6111    2.7946   -0.5622 H   0  0  0  0  0  0  0  0  0  0  0  0
    0.3128    3.0924    1.5501 H   0  0  0  0  0  0  0  0  0  0  0  0
    0.1054    1.7216    2.6944 H   0  0  0  0  0  0  0  0  0  0  0  0
   -1.1725    0.5622    1.0614 H   0  0  0  0  0  0  0  0  0  0  0  0
   -2.4216    1.9023    2.5074 H   0  0  0  0  0  0  0  0  0  0  0  0
   -2.0290    3.3687    1.5363 H   0  0  0  0  0  0  0  0  0  0  0  0
   -4.2787    2.6987    0.9698 H   0  0  0  0  0  0  0  0  0  0  0  0
   -3.2260    2.4075   -0.4438 H   0  0  0  0  0  0  0  0  0  0  0  0
   -5.9962    1.4768    2.3499 H   0  0  0  0  0  0  0  0  0  0  0  0
   -6.0158   -0.1091    3.2089 H   0  0  0  0  0  0  0  0  0  0  0  0
   -4.5931    0.9874    3.3857 H   0  0  0  0  0  0  0  0  0  0  0  0
   -5.3787   -2.0517    1.7244 H   0  0  0  0  0  0  0  0  0  0  0  0
   -4.3445   -3.6477   -0.2402 H   0  0  0  0  0  0  0  0  0  0  0  0
   -2.8469   -3.6338   -2.2429 H   0  0  0  0  0  0  0  0  0  0  0  0
   -1.7687   -1.5177   -2.9836 H   0  0  0  0  0  0  0  0  0  0  0  0
   -2.1770    0.6049   -1.7362 H   0  0  0  0  0  0  0  0  0  0  0  0
    1.3368   -0.3765    2.3410 H   0  0  0  0  0  0  0  0  0  0  0  0
    3.2256   -1.5208    1.2763 H   0  0  0  0  0  0  0  0  0  0  0  0
    8.4264   -0.6041   -3.4729 H   0  0  0  0  0  0  0  0  0  0  0  0
    8.5653   -2.6751   -3.1355 H   0  0  0  0  0  0  0  0  0  0  0  0
  1  2  2  0
  2  3  1  0
  3  4  2  0
  4  5  1  0
  5  6  2  0
  6  7  1  0
  7  8  1  0
  8  9  1  0
  9 10  1  0
 10 11  1  0
 11 12  2  0
 12 13  1  0
 12 14  1  0
 14 15  1  0
 15 16  2  0
 16 17  1  0
 17 18  2  0
 18 19  1  0
 19 20  2  0
  6 21  1  0
 21 22  2  0
  1 23  1  0
 23 24  1  0
 23 25  2  0
 25 26  1  0
 22  3  1  0
 20 11  1  0
 20 15  1  0
  1 27  1  0
  2 28  1  0
  4 29  1  0
  5 30  1  0
  7 31  1  0
  7 32  1  0
  8 33  1  0
  9 34  1  0
  9 35  1  0
 10 36  1  0
 10 37  1  0
 13 38  1  0
 13 39  1  0
 13 40  1  0
 14 41  1  0
 16 42  1  0
 17 43  1  0
 18 44  1  0
 19 45  1  0
 21 46  1  0
 22 47  1  0
 24 48  1  0
 26 49  1  0
M  END
$$$$
