
     RDKit          3D

 49 51  0  0  0  0  0  0  0  0999 V2000
   -4.2166    2.2962   -1.2736 C   0  0  0  0  0  0  0  0  0  0  0  0
   -4.0375    0.7829   -1.1876 C   0  0  0  0  0  0  0  0  0  0  0  0
   -3.5363    0.4004    0.1527 N   0  0  0  0  0  0  0  0  0  0  0  0
   -4.0187   -0.9461    0.5388 C   0  0  0  0  0  0  0  0  0  0  0  0
   -5.3839   -0.8450    1.2129 C   0  0  0  0  0  0  0  0  0  0  0  0
   -2.0583    0.4733    0.2113 C   0  0  0  0  0  0  0  0  0  0  0  0
   -1.6040    0.8432    1.6274 C   0  0  0  0  0  0  0  0  0  0  0  0
   -0.1467    0.9588    1.6876 N   0  0  0  0  0  0  0  0  0  0  0  0
    0.7309   -0.1519    1.4322 C   0  0  0  0  0  0  0  0  0  0  0  0
    1.8053   -0.0708    0.4862 C   0  0  0  0  0  0  0  0  0  0  0  0
    1.9495    1.0742   -0.3841 C   0  0  0  0  0  0  0  0  0  0  0  0
    1.0584    1.9668   -0.3506 O   0  0  0  0  0  0  0  0  0  0  0  0
    3.0186    1.2794   -1.3149 C   0  0  0  0  0  0  0  0  0  0  0  0
    3.0694    2.4717   -2.0799 C   0  0  0  0  0  0  0  0  0  0  0  0
    4.0988    2.6983   -2.9987 C   0  0  0  0  0  0  0  0  0  0  0  0
    5.0992    1.7453   -3.1809 C   0  0  0  0  0  0  0  0  0  0  0  0
    5.0726    0.5621   -2.4455 C   0  0  0  0  0  0  0  0  0  0  0  0
    4.0441    0.3346   -1.5241 C   0  0  0  0  0  0  0  0  0  0  0  0
    3.9997   -1.0948   -0.6545 S   0  0  0  0  0  0  0  0  0  0  0  0
    2.6956   -1.1829    0.4173 C   0  0  0  0  0  0  0  0  0  0  0  0
    2.5049   -2.3354    1.2154 C   0  0  0  0  0  0  0  0  0  0  0  0
    3.4102   -3.5446    1.1273 C   0  0  0  0  0  0  0  0  0  0  0  0
    2.9701   -4.4034    0.1112 O   0  0  0  0  0  0  0  0  0  0  0  0
    1.4067   -2.3944    2.0733 C   0  0  0  0  0  0  0  0  0  0  0  0
    0.5439   -1.3157    2.1898 C   0  0  0  0  0  0  0  0  0  0  0  0
   -4.9132    2.6403   -0.4799 H   0  0  0  0  0  0  0  0  0  0  0  0
   -3.2453    2.8189   -1.1546 H   0  0  0  0  0  0  0  0  0  0  0  0
   -4.6420    2.5654   -2.2634 H   0  0  0  0  0  0  0  0  0  0  0  0
   -5.0321    0.3289   -1.3929 H   0  0  0  0  0  0  0  0  0  0  0  0
   -3.3520    0.4333   -1.9930 H   0  0  0  0  0  0  0  0  0  0  0  0
   -3.3331   -1.4293    1.2699 H   0  0  0  0  0  0  0  0  0  0  0  0
   -4.0775   -1.6254   -0.3421 H   0  0  0  0  0  0  0  0  0  0  0  0
   -6.1425   -0.4373    0.5133 H   0  0  0  0  0  0  0  0  0  0  0  0
   -5.7132   -1.8534    1.5412 H   0  0  0  0  0  0  0  0  0  0  0  0
   -5.3183   -0.1833    2.1026 H   0  0  0  0  0  0  0  0  0  0  0  0
   -1.6656    1.2575   -0.4731 H   0  0  0  0  0  0  0  0  0  0  0  0
   -1.5968   -0.4892   -0.1083 H   0  0  0  0  0  0  0  0  0  0  0  0
   -1.9551    0.0929    2.3643 H   0  0  0  0  0  0  0  0  0  0  0  0
   -2.0577    1.8194    1.9055 H   0  0  0  0  0  0  0  0  0  0  0  0
    0.2689    1.8819    1.9474 H   0  0  0  0  0  0  0  0  0  0  0  0
    2.3155    3.2416   -1.9719 H   0  0  0  0  0  0  0  0  0  0  0  0
    4.1194    3.6169   -3.5710 H   0  0  0  0  0  0  0  0  0  0  0  0
    5.8941    1.9232   -3.8936 H   0  0  0  0  0  0  0  0  0  0  0  0
    5.8508   -0.1764   -2.5950 H   0  0  0  0  0  0  0  0  0  0  0  0
    3.3954   -4.1025    2.0881 H   0  0  0  0  0  0  0  0  0  0  0  0
    4.4717   -3.2523    0.9669 H   0  0  0  0  0  0  0  0  0  0  0  0
    3.2891   -4.0188   -0.7463 H   0  0  0  0  0  0  0  0  0  0  0  0
    1.2272   -3.2759    2.6771 H   0  0  0  0  0  0  0  0  0  0  0  0
   -0.2636   -1.3788    2.9071 H   0  0  0  0  0  0  0  0  0  0  0  0
  1  2  1  0
  2  3  1  0
  3  4  1  0
  4  5  1  0
  3  6  1  0
  6  7  1  0
  7  8  1  0
  8  9  1  0
  9 10  2  0
 10 11  1  0
 11 12  2  0
 11 13  1  0
 13 14  2  0
 14 15  1  0
 15 16  2  0
 16 17  1  0
 17 18  2  0
 18 19  1  0
 19 20  1  0
 20 21  2  0
 21 22  1  0
 22 23  1  0
 21 24  1  0
 24 25  2  0
 25  9  1  0
 20 10  1  0
 18 13  1  0
  1 26  1  0
  1 27  1  0
  1 28  1  0
  2 29  1  0
  2 30  1  0
  4 31  1  0
  4 32  1  0
  5 33  1  0
  5 34  1  0
  5 35  1  0
  6 36  1  0
  6 37  1  0
  7 38  1  0
  7 39  1  0
  8 40  1  0
 14 41  1  0
 15 42  1  0
 16 43  1  0
 17 44  1  0
 22 45  1  0
 22 46  1  0
 23 47  1  0
 24 48  1  0
 25 49  1  0
M  END
$$$$
