
     RDKit          3D

 28 29  0  0  0  0  0  0  0  0999 V2000
    3.3686    0.3765   -2.2757 C   0  0  0  0  0  0  0  0  0  0  0  0
    2.9772    0.7952   -0.8993 C   0  0  0  0  0  0  0  0  0  0  0  0
    2.0948    0.1377   -0.0701 C   0  0  0  0  0  0  0  0  0  0  0  0
    2.1039    0.9167    1.0703 C   0  0  0  0  0  0  0  0  0  0  0  0
    1.3456    0.6894    2.2625 N   0  0  0  0  0  0  0  0  0  0  0  0
    0.2321   -0.6296    2.4198 S   0  0  0  0  0  6  0  0  0  0  0  0
   -0.4292   -0.5647    3.7674 O   0  0  0  0  0  0  0  0  0  0  0  0
    0.9893   -1.9232    2.3062 O   0  0  0  0  0  0  0  0  0  0  0  0
   -1.0036   -0.5240    1.1703 C   0  0  0  0  0  0  0  0  0  0  0  0
   -1.4953   -1.6848    0.5578 C   0  0  0  0  0  0  0  0  0  0  0  0
   -2.4694   -1.5938   -0.4412 C   0  0  0  0  0  0  0  0  0  0  0  0
   -2.9623   -0.3415   -0.8346 C   0  0  0  0  0  0  0  0  0  0  0  0
   -3.9575   -0.2483   -1.8572 N   0  0  0  0  0  0  0  0  0  0  0  0
   -2.4734    0.8188   -0.2176 C   0  0  0  0  0  0  0  0  0  0  0  0
   -1.4998    0.7274    0.7816 C   0  0  0  0  0  0  0  0  0  0  0  0
    2.9426    1.9587    0.9163 N   0  0  0  0  0  0  0  0  0  0  0  0
    3.4501    1.8513   -0.2776 O   0  0  0  0  0  0  0  0  0  0  0  0
    2.4622    0.1219   -2.8641 H   0  0  0  0  0  0  0  0  0  0  0  0
    4.0315   -0.5117   -2.2188 H   0  0  0  0  0  0  0  0  0  0  0  0
    3.9087    1.2027   -2.7836 H   0  0  0  0  0  0  0  0  0  0  0  0
    1.5383   -0.7675   -0.2724 H   0  0  0  0  0  0  0  0  0  0  0  0
    1.4473    1.3530    3.0621 H   0  0  0  0  0  0  0  0  0  0  0  0
   -1.1256   -2.6590    0.8507 H   0  0  0  0  0  0  0  0  0  0  0  0
   -2.8395   -2.4978   -0.9082 H   0  0  0  0  0  0  0  0  0  0  0  0
   -4.3309    0.6800   -2.1567 H   0  0  0  0  0  0  0  0  0  0  0  0
   -4.3280   -1.1069   -2.3223 H   0  0  0  0  0  0  0  0  0  0  0  0
   -2.8462    1.7921   -0.5107 H   0  0  0  0  0  0  0  0  0  0  0  0
   -1.1316    1.6315    1.2496 H   0  0  0  0  0  0  0  0  0  0  0  0
  1  2  1  0
  2  3  2  0
  3  4  1  0
  4  5  1  0
  5  6  1  0
  6  7  2  0
  6  8  2  0
  6  9  1  0
  9 10  2  0
 10 11  1  0
 11 12  2  0
 12 13  1  0
 12 14  1  0
 14 15  2  0
  4 16  2  0
 16 17  1  0
 17  2  1  0
 15  9  1  0
  1 18  1  0
  1 19  1  0
  1 20  1  0
  3 21  1  0
  5 22  1  0
 10 23  1  0
 11 24  1  0
 13 25  1  0
 13 26  1  0
 14 27  1  0
 15 28  1  0
M  END
$$$$
