
     RDKit          3D

 47 49  0  0  0  0  0  0  0  0999 V2000
    4.4141    2.2299   -0.9989 C   0  0  0  0  0  0  0  0  0  0  0  0
    3.2864    1.2206   -0.7900 C   0  0  0  0  0  0  0  0  0  0  0  0
    3.8338   -0.1246   -0.5107 N   0  0  0  0  0  0  0  0  0  0  0  0
    4.2224   -0.2923    0.9095 C   0  0  0  0  0  0  0  0  0  0  0  0
    5.3631   -1.2974    1.0443 C   0  0  0  0  0  0  0  0  0  0  0  0
    2.9635   -1.2149   -1.0232 C   0  0  0  0  0  0  0  0  0  0  0  0
    1.6231   -1.3318   -0.3135 C   0  0  0  0  0  0  0  0  0  0  0  0
    1.4271   -2.2688    0.7232 C   0  0  0  0  0  0  0  0  0  0  0  0
    2.4625   -3.1189    1.1111 O   0  0  0  0  0  0  0  0  0  0  0  0
    0.1869   -2.3469    1.3698 C   0  0  0  0  0  0  0  0  0  0  0  0
   -0.8660   -1.5178    0.9827 C   0  0  0  0  0  0  0  0  0  0  0  0
   -0.7011   -0.6105   -0.0760 C   0  0  0  0  0  0  0  0  0  0  0  0
   -1.7706    0.2585   -0.4904 N   0  0  0  0  0  0  0  0  0  0  0  0
   -3.1641   -0.0317   -0.2816 C   0  0  0  0  0  0  0  0  0  0  0  0
   -4.0602    0.9677    0.1597 C   0  0  0  0  0  0  0  0  0  0  0  0
   -3.6323    2.2674    0.4946 C   0  0  0  0  0  0  0  0  0  0  0  0
   -4.5542    3.2225    0.9330 C   0  0  0  0  0  0  0  0  0  0  0  0
   -5.9081    2.8951    1.0494 C   0  0  0  0  0  0  0  0  0  0  0  0
   -7.0569    4.1003    1.6017 Cl  0  0  0  0  0  0  0  0  0  0  0  0
   -6.3461    1.6062    0.7324 C   0  0  0  0  0  0  0  0  0  0  0  0
   -5.4326    0.6413    0.2930 C   0  0  0  0  0  0  0  0  0  0  0  0
   -5.8678   -0.6123   -0.0017 N   0  0  0  0  0  0  0  0  0  0  0  0
   -5.0200   -1.5824   -0.4289 C   0  0  0  0  0  0  0  0  0  0  0  0
   -3.6608   -1.3098   -0.5808 C   0  0  0  0  0  0  0  0  0  0  0  0
    0.5456   -0.5199   -0.7114 C   0  0  0  0  0  0  0  0  0  0  0  0
    3.9857    3.2044   -1.3152 H   0  0  0  0  0  0  0  0  0  0  0  0
    4.9888    2.3929   -0.0649 H   0  0  0  0  0  0  0  0  0  0  0  0
    5.1034    1.8704   -1.7923 H   0  0  0  0  0  0  0  0  0  0  0  0
    2.6153    1.5595    0.0311 H   0  0  0  0  0  0  0  0  0  0  0  0
    2.6990    1.2196   -1.7334 H   0  0  0  0  0  0  0  0  0  0  0  0
    3.3647   -0.5959    1.5430 H   0  0  0  0  0  0  0  0  0  0  0  0
    4.5903    0.6649    1.3359 H   0  0  0  0  0  0  0  0  0  0  0  0
    6.2134   -0.9960    0.3964 H   0  0  0  0  0  0  0  0  0  0  0  0
    5.7108   -1.3258    2.0986 H   0  0  0  0  0  0  0  0  0  0  0  0
    5.0324   -2.3169    0.7615 H   0  0  0  0  0  0  0  0  0  0  0  0
    3.5094   -2.1796   -0.9747 H   0  0  0  0  0  0  0  0  0  0  0  0
    2.7862   -1.0646   -2.1110 H   0  0  0  0  0  0  0  0  0  0  0  0
    2.3448   -3.7958    1.8558 H   0  0  0  0  0  0  0  0  0  0  0  0
    0.0386   -3.0517    2.1782 H   0  0  0  0  0  0  0  0  0  0  0  0
   -1.8058   -1.5826    1.5153 H   0  0  0  0  0  0  0  0  0  0  0  0
   -1.5262    1.1230   -1.0244 H   0  0  0  0  0  0  0  0  0  0  0  0
   -2.5903    2.5515    0.4327 H   0  0  0  0  0  0  0  0  0  0  0  0
   -4.2133    4.2183    1.1865 H   0  0  0  0  0  0  0  0  0  0  0  0
   -7.3952    1.3544    0.8302 H   0  0  0  0  0  0  0  0  0  0  0  0
   -5.4038   -2.5672   -0.6594 H   0  0  0  0  0  0  0  0  0  0  0  0
   -3.0001   -2.0862   -0.9452 H   0  0  0  0  0  0  0  0  0  0  0  0
    0.6642    0.1739   -1.5326 H   0  0  0  0  0  0  0  0  0  0  0  0
  1  2  1  0
  2  3  1  0
  3  4  1  0
  4  5  1  0
  3  6  1  0
  6  7  1  0
  7  8  2  0
  8  9  1  0
  8 10  1  0
 10 11  2  0
 11 12  1  0
 12 13  1  0
 13 14  1  0
 14 15  1  0
 15 16  2  0
 16 17  1  0
 17 18  2  0
 18 19  1  0
 18 20  1  0
 20 21  2  0
 21 22  1  0
 22 23  2  0
 23 24  1  0
 12 25  2  0
 25  7  1  0
 24 14  2  0
 21 15  1  0
  1 26  1  0
  1 27  1  0
  1 28  1  0
  2 29  1  0
  2 30  1  0
  4 31  1  0
  4 32  1  0
  5 33  1  0
  5 34  1  0
  5 35  1  0
  6 36  1  0
  6 37  1  0
  9 38  1  0
 10 39  1  0
 11 40  1  0
 13 41  1  0
 16 42  1  0
 17 43  1  0
 20 44  1  0
 23 45  1  0
 24 46  1  0
 25 47  1  0
M  END
$$$$
