
     RDKit          3D

 56 59  0  0  0  0  0  0  0  0999 V2000
    3.4239   -1.7423    1.9753 C   0  0  0  0  0  0  0  0  0  0  0  0
    3.4490   -0.8491    0.8756 O   0  0  0  0  0  0  0  0  0  0  0  0
    4.6327   -0.5723    0.2274 N   0  0  0  0  0  0  0  0  0  0  0  0
    4.7033    0.2397   -0.7852 C   0  0  0  0  0  0  0  0  0  0  0  0
    3.4951    0.9359   -1.2857 C   0  0  0  0  0  0  0  0  0  0  0  0
    3.2823    0.9945   -2.5273 O   0  0  0  0  0  0  0  0  0  0  0  0
    2.5706    1.5436   -0.3716 N   0  0  0  0  0  0  0  0  0  0  0  0
    1.3251    2.1613   -0.8360 C   0  0  2  0  0  0  0  0  0  0  0  0
    0.5578    2.7803    0.2928 C   0  0  0  0  0  0  0  0  0  0  0  0
    0.7490    3.7555    1.0651 O   0  0  0  0  0  0  0  0  0  0  0  0
   -0.4901    1.7420    0.1374 N   0  0  0  0  0  0  0  0  0  0  0  0
    0.2218    1.2410   -1.0091 C   0  0  2  0  0  0  0  0  0  0  0  0
    0.5014   -0.5376   -0.7346 S   0  0  0  0  0  0  0  0  0  0  0  0
   -1.2980   -0.8500   -0.5434 C   0  0  0  0  0  0  0  0  0  0  0  0
   -1.9404   -0.1041    0.6249 C   0  0  0  0  0  0  0  0  0  0  0  0
   -2.9540   -0.8715    1.4789 C   0  0  0  0  0  0  0  0  0  0  0  0
   -4.3681   -0.9158    0.9654 N   0  0  0  0  0  4  0  0  0  0  0  0
   -5.2529   -1.2903    2.1026 C   0  0  0  0  0  0  0  0  0  0  0  0
   -4.5361   -1.9182   -0.1123 C   0  0  0  0  0  0  0  0  0  0  0  0
   -5.7314   -1.4924   -0.9572 C   0  0  0  0  0  0  0  0  0  0  0  0
   -5.9400   -0.0187   -0.6519 C   0  0  0  0  0  0  0  0  0  0  0  0
   -4.8631    0.3478    0.3651 C   0  0  0  0  0  0  0  0  0  0  0  0
   -1.5502    1.1733    0.9136 C   0  0  0  0  0  0  0  0  0  0  0  0
   -2.0615    1.9523    2.0677 C   0  0  0  0  0  0  0  0  0  0  0  0
   -1.2024    2.7747    2.7832 O   0  0  0  0  0  1  0  0  0  0  0  0
   -3.2742    1.9125    2.3986 O   0  0  0  0  0  0  0  0  0  0  0  0
    6.0114    0.4191   -1.4513 C   0  0  0  0  0  0  0  0  0  0  0  0
    6.2864    1.4264   -2.3815 C   0  0  0  0  0  0  0  0  0  0  0  0
    7.8931    1.2776   -2.8606 S   0  0  0  0  0  0  0  0  0  0  0  0
    8.1658   -0.0477   -1.8682 C   0  0  0  0  0  0  0  0  0  0  0  0
    9.4094   -0.7345   -1.7614 N   0  0  0  0  0  0  0  0  0  0  0  0
    7.0670   -0.3940   -1.1671 N   0  0  0  0  0  0  0  0  0  0  0  0
    4.0747   -1.3566    2.7876 H   0  0  0  0  0  0  0  0  0  0  0  0
    3.7810   -2.7434    1.6546 H   0  0  0  0  0  0  0  0  0  0  0  0
    2.3839   -1.8296    2.3515 H   0  0  0  0  0  0  0  0  0  0  0  0
    2.8428    1.6316    0.6343 H   0  0  0  0  0  0  0  0  0  0  0  0
    1.4759    2.8705   -1.6792 H   0  0  0  0  0  0  0  0  0  0  0  0
   -0.3494    1.4351   -1.9450 H   0  0  0  0  0  0  0  0  0  0  0  0
   -1.4158   -1.9461   -0.4186 H   0  0  0  0  0  0  0  0  0  0  0  0
   -1.8130   -0.5583   -1.4835 H   0  0  0  0  0  0  0  0  0  0  0  0
   -2.5792   -1.9133    1.5983 H   0  0  0  0  0  0  0  0  0  0  0  0
   -2.9162   -0.4893    2.5213 H   0  0  0  0  0  0  0  0  0  0  0  0
   -5.2246   -0.5163    2.9022 H   0  0  0  0  0  0  0  0  0  0  0  0
   -4.9331   -2.2561    2.5549 H   0  0  0  0  0  0  0  0  0  0  0  0
   -6.3133   -1.4003    1.7836 H   0  0  0  0  0  0  0  0  0  0  0  0
   -3.6576   -1.9440   -0.7829 H   0  0  0  0  0  0  0  0  0  0  0  0
   -4.6731   -2.9515    0.2814 H   0  0  0  0  0  0  0  0  0  0  0  0
   -5.5325   -1.6533   -2.0396 H   0  0  0  0  0  0  0  0  0  0  0  0
   -6.6324   -2.0755   -0.6652 H   0  0  0  0  0  0  0  0  0  0  0  0
   -6.9500    0.1413   -0.2143 H   0  0  0  0  0  0  0  0  0  0  0  0
   -5.8451    0.5976   -1.5730 H   0  0  0  0  0  0  0  0  0  0  0  0
   -4.0688    0.8870   -0.1902 H   0  0  0  0  0  0  0  0  0  0  0  0
   -5.2773    1.0488    1.1236 H   0  0  0  0  0  0  0  0  0  0  0  0
    5.6022    2.1891   -2.7274 H   0  0  0  0  0  0  0  0  0  0  0  0
   10.2325   -0.4257   -2.3243 H   0  0  0  0  0  0  0  0  0  0  0  0
    9.5058   -1.5519   -1.1192 H   0  0  0  0  0  0  0  0  0  0  0  0
  1  2  1  0
  2  3  1  0
  3  4  2  0
  4  5  1  0
  5  6  2  0
  5  7  1  0
  7  8  1  0
  8  9  1  0
  9 10  2  0
  9 11  1  0
 11 12  1  0
 12 13  1  0
 13 14  1  0
 14 15  1  0
 15 16  1  0
 16 17  1  0
 17 18  1  0
 17 19  1  0
 19 20  1  0
 20 21  1  0
 21 22  1  0
 15 23  2  0
 23 24  1  0
 24 25  1  0
 24 26  2  0
  4 27  1  0
 27 28  2  0
 28 29  1  0
 29 30  1  0
 30 31  1  0
 30 32  2  0
 12  8  1  0
 22 17  1  0
 32 27  1  0
 23 11  1  0
  1 33  1  0
  1 34  1  0
  1 35  1  0
  7 36  1  0
  8 37  1  6
 12 38  1  6
 14 39  1  0
 14 40  1  0
 16 41  1  0
 16 42  1  0
 18 43  1  0
 18 44  1  0
 18 45  1  0
 19 46  1  0
 19 47  1  0
 20 48  1  0
 20 49  1  0
 21 50  1  0
 21 51  1  0
 22 52  1  0
 22 53  1  0
 28 54  1  0
 31 55  1  0
 31 56  1  0
M  CHG  2  17   1  25  -1
M  END
$$$$
