
     RDKit          3D

 22 21  0  0  0  0  0  0  0  0999 V2000
    4.1380    0.7629   -0.2659 C   0  0  0  0  0  0  0  0  0  0  0  0
    2.8782    0.2410   -0.8762 C   0  0  0  0  0  0  0  0  0  0  0  0
    2.9010   -0.2366   -2.0430 O   0  0  0  0  0  0  0  0  0  0  0  0
    1.6491    0.3033   -0.1427 N   0  0  0  0  0  0  0  0  0  0  0  0
    0.3956   -0.1929   -0.7102 C   0  0  0  0  0  0  0  0  0  0  0  0
   -0.7611   -0.0094    0.2775 C   0  0  0  0  0  0  0  0  0  0  0  0
   -2.0748   -0.5273   -0.3121 C   0  0  0  0  0  0  0  0  0  0  0  0
   -3.4167   -0.3081    0.8437 S   0  0  0  0  0  6  0  0  0  0  0  0
   -3.5696    1.3229    1.2230 O   0  0  0  0  0  0  0  0  0  0  0  0
   -4.6914   -0.7984    0.2168 O   0  0  0  0  0  0  0  0  0  0  0  0
   -3.1390   -1.0939    2.0946 O   0  0  0  0  0  0  0  0  0  0  0  0
    4.0622    1.8636   -0.1454 H   0  0  0  0  0  0  0  0  0  0  0  0
    4.2918    0.2959    0.7293 H   0  0  0  0  0  0  0  0  0  0  0  0
    5.0116    0.5285   -0.9107 H   0  0  0  0  0  0  0  0  0  0  0  0
    1.6621    0.7150    0.8186 H   0  0  0  0  0  0  0  0  0  0  0  0
    0.5077   -1.2722   -0.9528 H   0  0  0  0  0  0  0  0  0  0  0  0
    0.1744    0.3637   -1.6471 H   0  0  0  0  0  0  0  0  0  0  0  0
   -0.5320   -0.5637    1.2139 H   0  0  0  0  0  0  0  0  0  0  0  0
   -0.8652    1.0708    0.5201 H   0  0  0  0  0  0  0  0  0  0  0  0
   -1.9835   -1.6084   -0.5516 H   0  0  0  0  0  0  0  0  0  0  0  0
   -2.3156    0.0268   -1.2445 H   0  0  0  0  0  0  0  0  0  0  0  0
   -4.3230    1.3664    1.8646 H   0  0  0  0  0  0  0  0  0  0  0  0
  1  2  1  0
  2  3  2  0
  2  4  1  0
  4  5  1  0
  5  6  1  0
  6  7  1  0
  7  8  1  0
  8  9  1  0
  8 10  2  0
  8 11  2  0
  1 12  1  0
  1 13  1  0
  1 14  1  0
  4 15  1  0
  5 16  1  0
  5 17  1  0
  6 18  1  0
  6 19  1  0
  7 20  1  0
  7 21  1  0
  9 22  1  0
M  END
$$$$
