
     RDKit          3D

 54 57  0  0  0  0  0  0  0  0999 V2000
    1.9456    0.4713   -1.2003 C   0  0  2  0  0  0  0  0  0  0  0  0
    2.9266    0.0079   -2.2697 C   0  0  0  0  0  0  0  0  0  0  0  0
    4.2083    0.8063   -1.9705 C   0  0  0  0  0  0  0  0  0  0  0  0
    3.9820    1.5161   -0.6162 C   0  0  2  0  0  0  0  0  0  0  0  0
    5.1412    1.5011    0.1772 O   0  0  0  0  0  0  0  0  0  0  0  0
    2.8171    0.7425    0.0324 C   0  0  2  0  0  0  0  0  0  0  0  0
    3.3648   -0.5499    0.7215 C   0  0  0  0  0  0  0  0  0  0  0  0
    1.9785    1.5645    1.0346 C   0  0  0  0  0  0  0  0  0  0  0  0
    0.6761    0.8206    1.4191 C   0  0  0  0  0  0  0  0  0  0  0  0
   -0.1608    0.3616    0.1802 C   0  0  1  0  0  0  0  0  0  0  0  0
    0.7152   -0.4007   -0.8765 C   0  0  1  0  0  0  0  0  0  0  0  0
   -0.1025   -0.6916   -2.1494 C   0  0  0  0  0  0  0  0  0  0  0  0
   -1.3811   -1.4693   -1.8255 C   0  0  0  0  0  0  0  0  0  0  0  0
   -2.2423   -0.7001   -0.8072 C   0  0  1  0  0  0  0  0  0  0  0  0
   -3.6047   -1.3871   -0.6076 C   0  0  0  0  0  0  0  0  0  0  0  0
   -4.4349   -0.6246    0.3859 C   0  0  0  0  0  0  0  0  0  0  0  0
   -5.6339   -0.4921    0.1850 O   0  0  0  0  0  0  0  0  0  0  0  0
   -3.8091   -0.1488    1.6809 C   0  0  2  0  0  0  0  0  0  0  0  0
   -4.6990    0.8704    2.4088 C   0  0  0  0  0  0  0  0  0  0  0  0
   -2.4076    0.4582    1.4301 C   0  0  0  0  0  0  0  0  0  0  0  0
   -1.4810   -0.4283    0.5382 C   0  0  2  0  0  0  0  0  0  0  0  0
   -1.1534   -1.7456    1.3046 C   0  0  0  0  0  0  0  0  0  0  0  0
    1.5473    1.4487   -1.5719 H   0  0  0  0  0  0  0  0  0  0  0  0
    3.1148   -1.0845   -2.1830 H   0  0  0  0  0  0  0  0  0  0  0  0
    2.5447    0.2328   -3.2895 H   0  0  0  0  0  0  0  0  0  0  0  0
    5.0780    0.1149   -1.9178 H   0  0  0  0  0  0  0  0  0  0  0  0
    4.3976    1.5572   -2.7683 H   0  0  0  0  0  0  0  0  0  0  0  0
    3.6714    2.5717   -0.8057 H   0  0  0  0  0  0  0  0  0  0  0  0
    5.7829    2.1256   -0.2512 H   0  0  0  0  0  0  0  0  0  0  0  0
    3.9984   -1.1471    0.0337 H   0  0  0  0  0  0  0  0  0  0  0  0
    2.5666   -1.2163    1.0975 H   0  0  0  0  0  0  0  0  0  0  0  0
    3.9881   -0.2779    1.5998 H   0  0  0  0  0  0  0  0  0  0  0  0
    2.5733    1.7690    1.9513 H   0  0  0  0  0  0  0  0  0  0  0  0
    1.7080    2.5489    0.5920 H   0  0  0  0  0  0  0  0  0  0  0  0
    0.9277   -0.0399    2.0681 H   0  0  0  0  0  0  0  0  0  0  0  0
    0.0781    1.5232    2.0350 H   0  0  0  0  0  0  0  0  0  0  0  0
   -0.4863    1.3086   -0.3107 H   0  0  0  0  0  0  0  0  0  0  0  0
    1.0599   -1.3750   -0.4823 H   0  0  0  0  0  0  0  0  0  0  0  0
   -0.3703    0.2609   -2.6587 H   0  0  0  0  0  0  0  0  0  0  0  0
    0.5055   -1.2962   -2.8565 H   0  0  0  0  0  0  0  0  0  0  0  0
   -1.1267   -2.4816   -1.4453 H   0  0  0  0  0  0  0  0  0  0  0  0
   -1.9539   -1.6048   -2.7690 H   0  0  0  0  0  0  0  0  0  0  0  0
   -2.4688    0.2883   -1.2729 H   0  0  0  0  0  0  0  0  0  0  0  0
   -4.1401   -1.4222   -1.5824 H   0  0  0  0  0  0  0  0  0  0  0  0
   -3.4817   -2.4348   -0.2635 H   0  0  0  0  0  0  0  0  0  0  0  0
   -3.7065   -1.0282    2.3519 H   0  0  0  0  0  0  0  0  0  0  0  0
   -4.8822    1.7595    1.7675 H   0  0  0  0  0  0  0  0  0  0  0  0
   -4.2112    1.2019    3.3503 H   0  0  0  0  0  0  0  0  0  0  0  0
   -5.6745    0.4095    2.6743 H   0  0  0  0  0  0  0  0  0  0  0  0
   -1.9351    0.6262    2.4213 H   0  0  0  0  0  0  0  0  0  0  0  0
   -2.5291    1.4552    0.9495 H   0  0  0  0  0  0  0  0  0  0  0  0
   -0.7347   -1.5278    2.3080 H   0  0  0  0  0  0  0  0  0  0  0  0
   -0.4305   -2.3852    0.7658 H   0  0  0  0  0  0  0  0  0  0  0  0
   -2.0556   -2.3631    1.4744 H   0  0  0  0  0  0  0  0  0  0  0  0
  1  2  1  0
  2  3  1  0
  3  4  1  0
  4  5  1  0
  4  6  1  0
  6  7  1  1
  6  8  1  0
  8  9  1  0
  9 10  1  0
 10 11  1  0
 11 12  1  0
 12 13  1  0
 13 14  1  0
 14 15  1  0
 15 16  1  0
 16 17  2  0
 16 18  1  0
 18 19  1  0
 18 20  1  0
 20 21  1  0
 21 22  1  1
  6  1  1  0
 21 10  1  0
 11  1  1  0
 21 14  1  0
  1 23  1  6
  2 24  1  0
  2 25  1  0
  3 26  1  0
  3 27  1  0
  4 28  1  6
  5 29  1  0
  7 30  1  0
  7 31  1  0
  7 32  1  0
  8 33  1  0
  8 34  1  0
  9 35  1  0
  9 36  1  0
 10 37  1  6
 11 38  1  1
 12 39  1  0
 12 40  1  0
 13 41  1  0
 13 42  1  0
 14 43  1  6
 15 44  1  0
 15 45  1  0
 18 46  1  1
 19 47  1  0
 19 48  1  0
 19 49  1  0
 20 50  1  0
 20 51  1  0
 22 52  1  0
 22 53  1  0
 22 54  1  0
M  END
$$$$
