
     RDKit          3D

 74 77  0  0  0  0  0  0  0  0999 V2000
   -1.8479   -1.3169    5.8322 C   0  0  0  0  0  0  0  0  0  0  0  0
   -1.6292   -1.1926    4.4452 O   0  0  0  0  0  0  0  0  0  0  0  0
   -2.7198   -1.7538    3.7484 C   0  0  0  0  0  0  0  0  0  0  0  0
   -2.4802   -1.6038    2.2850 C   0  0  0  0  0  0  0  0  0  0  0  0
   -1.8627   -2.5085    1.6621 O   0  0  0  0  0  0  0  0  0  0  0  0
   -2.9039   -0.4297    1.6430 O   0  0  0  0  0  0  0  0  0  0  0  0
   -2.6758   -0.0777    0.2669 C   0  0  2  0  0  0  0  0  0  0  0  0
   -1.1341    0.0119    0.0059 C   0  0  0  0  0  0  0  0  0  0  0  0
   -0.3945    0.9752    0.9683 C   0  0  0  0  0  0  0  0  0  0  0  0
    1.0796    0.8331    0.9407 N   0  0  0  0  0  0  0  0  0  0  0  0
    1.5308   -0.4463    1.5193 C   0  0  0  0  0  0  0  0  0  0  0  0
    1.6493    1.0805   -0.4025 C   0  0  0  0  0  0  0  0  0  0  0  0
    3.1358    1.4810   -0.3189 C   0  0  0  0  0  0  0  0  0  0  0  0
    4.0699    0.3335   -0.7235 C   0  0  0  0  0  0  0  0  0  0  0  0
    5.5000    0.7458   -0.5681 C   0  0  0  0  0  0  0  0  0  0  0  0
    6.2214    1.3088   -1.5743 N   0  0  0  0  0  0  0  0  0  0  0  0
    7.4024    1.5637   -0.9830 C   0  0  0  0  0  0  0  0  0  0  0  0
    8.5324    2.1471   -1.5516 C   0  0  0  0  0  0  0  0  0  0  0  0
    9.6607    2.3256   -0.7278 C   0  0  0  0  0  0  0  0  0  0  0  0
    9.6288    1.9230    0.6277 C   0  0  0  0  0  0  0  0  0  0  0  0
    8.4687    1.3385    1.1704 C   0  0  0  0  0  0  0  0  0  0  0  0
    7.3746    1.1761    0.3237 C   0  0  0  0  0  0  0  0  0  0  0  0
    6.1732    0.6592    0.6060 N   0  0  0  0  0  0  0  0  0  0  0  0
   -3.3591    1.2905    0.0343 C   0  0  0  0  0  0  0  0  0  0  0  0
   -3.2210    1.8058   -1.4070 C   0  0  0  0  0  0  0  0  0  0  0  0
   -3.3108    0.7290   -2.4645 C   0  0  0  0  0  0  0  0  0  0  0  0
   -3.2749   -0.6501   -2.1421 C   0  0  0  0  0  0  0  0  0  0  0  0
   -3.2560   -1.5992   -3.1799 C   0  0  0  0  0  0  0  0  0  0  0  0
   -3.2750   -1.1919   -4.5147 C   0  0  0  0  0  0  0  0  0  0  0  0
   -3.3130    0.1660   -4.8311 C   0  0  0  0  0  0  0  0  0  0  0  0
   -3.3272    0.5587   -6.1287 F   0  0  0  0  0  0  0  0  0  0  0  0
   -3.3240    1.1212   -3.8128 C   0  0  0  0  0  0  0  0  0  0  0  0
   -3.3380   -1.1247   -0.6976 C   0  0  2  0  0  0  0  0  0  0  0  0
   -4.7991   -1.5510   -0.2672 C   0  0  0  0  0  0  0  0  0  0  0  0
   -5.9347   -0.9347   -1.1108 C   0  0  0  0  0  0  0  0  0  0  0  0
   -4.9504   -3.0803   -0.2615 C   0  0  0  0  0  0  0  0  0  0  0  0
   -0.9831   -0.8738    6.3671 H   0  0  0  0  0  0  0  0  0  0  0  0
   -2.7590   -0.7613    6.1480 H   0  0  0  0  0  0  0  0  0  0  0  0
   -1.9189   -2.3854    6.1352 H   0  0  0  0  0  0  0  0  0  0  0  0
   -3.6678   -1.2272    4.0025 H   0  0  0  0  0  0  0  0  0  0  0  0
   -2.8295   -2.8371    3.9850 H   0  0  0  0  0  0  0  0  0  0  0  0
   -0.6968   -1.0006    0.0909 H   0  0  0  0  0  0  0  0  0  0  0  0
   -0.9387    0.3317   -1.0381 H   0  0  0  0  0  0  0  0  0  0  0  0
   -0.7528    0.8308    2.0102 H   0  0  0  0  0  0  0  0  0  0  0  0
   -0.6513    2.0231    0.7044 H   0  0  0  0  0  0  0  0  0  0  0  0
    2.5794   -0.3455    1.8669 H   0  0  0  0  0  0  0  0  0  0  0  0
    0.9265   -0.7185    2.4118 H   0  0  0  0  0  0  0  0  0  0  0  0
    1.4752   -1.2760    0.7821 H   0  0  0  0  0  0  0  0  0  0  0  0
    1.5044    0.2001   -1.0689 H   0  0  0  0  0  0  0  0  0  0  0  0
    1.1097    1.9283   -0.8823 H   0  0  0  0  0  0  0  0  0  0  0  0
    3.3180    2.3362   -1.0075 H   0  0  0  0  0  0  0  0  0  0  0  0
    3.3819    1.8303    0.7086 H   0  0  0  0  0  0  0  0  0  0  0  0
    3.8836    0.0556   -1.7836 H   0  0  0  0  0  0  0  0  0  0  0  0
    3.8836   -0.5633   -0.0976 H   0  0  0  0  0  0  0  0  0  0  0  0
    8.5435    2.4537   -2.5895 H   0  0  0  0  0  0  0  0  0  0  0  0
   10.5572    2.7751   -1.1345 H   0  0  0  0  0  0  0  0  0  0  0  0
   10.5010    2.0662    1.2522 H   0  0  0  0  0  0  0  0  0  0  0  0
    8.4293    1.0278    2.2063 H   0  0  0  0  0  0  0  0  0  0  0  0
    5.8306    0.2870    1.5199 H   0  0  0  0  0  0  0  0  0  0  0  0
   -4.4359    1.2123    0.2903 H   0  0  0  0  0  0  0  0  0  0  0  0
   -2.9540    2.0521    0.7333 H   0  0  0  0  0  0  0  0  0  0  0  0
   -2.2400    2.3178   -1.5122 H   0  0  0  0  0  0  0  0  0  0  0  0
   -4.0104    2.5672   -1.5891 H   0  0  0  0  0  0  0  0  0  0  0  0
   -3.2338   -2.6577   -2.9549 H   0  0  0  0  0  0  0  0  0  0  0  0
   -3.2628   -1.9318   -5.3046 H   0  0  0  0  0  0  0  0  0  0  0  0
   -3.3315    2.1725   -4.0741 H   0  0  0  0  0  0  0  0  0  0  0  0
   -2.6939   -2.0298   -0.6475 H   0  0  0  0  0  0  0  0  0  0  0  0
   -4.9913   -1.2267    0.7768 H   0  0  0  0  0  0  0  0  0  0  0  0
   -6.9188   -1.1764   -0.6553 H   0  0  0  0  0  0  0  0  0  0  0  0
   -5.9272   -1.3379   -2.1457 H   0  0  0  0  0  0  0  0  0  0  0  0
   -5.8502    0.1687   -1.1575 H   0  0  0  0  0  0  0  0  0  0  0  0
   -5.9622   -3.3676    0.0970 H   0  0  0  0  0  0  0  0  0  0  0  0
   -4.8042   -3.4938   -1.2813 H   0  0  0  0  0  0  0  0  0  0  0  0
   -4.2065   -3.5390    0.4237 H   0  0  0  0  0  0  0  0  0  0  0  0
  1  2  1  0
  2  3  1  0
  3  4  1  0
  4  5  2  0
  4  6  1  0
  7  6  1  1
  7  8  1  0
  8  9  1  0
  9 10  1  0
 10 11  1  0
 10 12  1  0
 12 13  1  0
 13 14  1  0
 14 15  1  0
 15 16  2  0
 16 17  1  0
 17 18  2  0
 18 19  1  0
 19 20  2  0
 20 21  1  0
 21 22  2  0
 22 23  1  0
  7 24  1  0
 24 25  1  0
 25 26  1  0
 26 27  2  0
 27 28  1  0
 28 29  2  0
 29 30  1  0
 30 31  1  0
 30 32  2  0
 27 33  1  0
 33 34  1  0
 34 35  1  0
 34 36  1  0
 33  7  1  0
 23 15  1  0
 32 26  1  0
 22 17  1  0
  1 37  1  0
  1 38  1  0
  1 39  1  0
  3 40  1  0
  3 41  1  0
  8 42  1  0
  8 43  1  0
  9 44  1  0
  9 45  1  0
 11 46  1  0
 11 47  1  0
 11 48  1  0
 12 49  1  0
 12 50  1  0
 13 51  1  0
 13 52  1  0
 14 53  1  0
 14 54  1  0
 18 55  1  0
 19 56  1  0
 20 57  1  0
 21 58  1  0
 23 59  1  0
 24 60  1  0
 24 61  1  0
 25 62  1  0
 25 63  1  0
 28 64  1  0
 29 65  1  0
 32 66  1  0
 33 67  1  6
 34 68  1  0
 35 69  1  0
 35 70  1  0
 35 71  1  0
 36 72  1  0
 36 73  1  0
 36 74  1  0
M  END
$$$$
