
     RDKit          3D

 44 46  0  0  0  0  0  0  0  0999 V2000
    4.5966   -2.4414    0.6258 C   0  0  0  0  0  0  0  0  0  0  0  0
    4.6942   -1.8203   -0.7674 C   0  0  0  0  0  0  0  0  0  0  0  0
    3.3756   -1.9440   -1.5596 C   0  0  0  0  0  0  0  0  0  0  0  0
    2.5883   -0.6243   -1.6609 C   0  0  0  0  0  0  0  0  0  0  0  0
    2.0779   -0.0829   -0.3114 C   0  0  0  0  0  0  0  0  0  0  0  0
    1.3638    1.2222   -0.5064 C   0  0  0  0  0  0  0  0  0  0  0  0
    1.9263    2.2863   -0.8799 O   0  0  0  0  0  0  0  0  0  0  0  0
   -0.0152    1.1442   -0.1511 N   0  0  0  0  0  0  0  0  0  0  0  0
   -0.2667   -0.1454    0.3341 N   0  0  0  0  0  0  0  0  0  0  0  0
    0.9452   -0.8936    0.2552 C   0  0  0  0  0  0  0  0  0  0  0  0
    1.0436   -2.0926    0.6294 O   0  0  0  0  0  0  0  0  0  0  0  0
   -1.5747   -0.7168    0.5103 C   0  0  0  0  0  0  0  0  0  0  0  0
   -1.8254   -1.5925    1.5783 C   0  0  0  0  0  0  0  0  0  0  0  0
   -3.0988   -2.1416    1.7567 C   0  0  0  0  0  0  0  0  0  0  0  0
   -4.1327   -1.8236    0.8703 C   0  0  0  0  0  0  0  0  0  0  0  0
   -5.3968   -2.3770    1.0606 O   0  0  0  0  0  0  0  0  0  0  0  0
   -3.8875   -0.9525   -0.1996 C   0  0  0  0  0  0  0  0  0  0  0  0
   -2.6149   -0.4028   -0.3796 C   0  0  0  0  0  0  0  0  0  0  0  0
   -0.8845    2.2760    0.0286 C   0  0  0  0  0  0  0  0  0  0  0  0
   -0.9860    3.2543   -0.9736 C   0  0  0  0  0  0  0  0  0  0  0  0
   -1.8377    4.3504   -0.8054 C   0  0  0  0  0  0  0  0  0  0  0  0
   -2.5915    4.4787    0.3643 C   0  0  0  0  0  0  0  0  0  0  0  0
   -2.4933    3.5117    1.3683 C   0  0  0  0  0  0  0  0  0  0  0  0
   -1.6425    2.4146    1.2037 C   0  0  0  0  0  0  0  0  0  0  0  0
    4.3659   -3.5252    0.5473 H   0  0  0  0  0  0  0  0  0  0  0  0
    5.5673   -2.3252    1.1521 H   0  0  0  0  0  0  0  0  0  0  0  0
    3.8088   -1.9467    1.2286 H   0  0  0  0  0  0  0  0  0  0  0  0
    5.4982   -2.3540   -1.3200 H   0  0  0  0  0  0  0  0  0  0  0  0
    5.0123   -0.7588   -0.6789 H   0  0  0  0  0  0  0  0  0  0  0  0
    2.7313   -2.7528   -1.1550 H   0  0  0  0  0  0  0  0  0  0  0  0
    3.6279   -2.2515   -2.5982 H   0  0  0  0  0  0  0  0  0  0  0  0
    3.2435    0.1395   -2.1353 H   0  0  0  0  0  0  0  0  0  0  0  0
    1.7250   -0.7811   -2.3459 H   0  0  0  0  0  0  0  0  0  0  0  0
    2.8919    0.0475    0.4308 H   0  0  0  0  0  0  0  0  0  0  0  0
   -1.0401   -1.8352    2.2825 H   0  0  0  0  0  0  0  0  0  0  0  0
   -3.2832   -2.8118    2.5866 H   0  0  0  0  0  0  0  0  0  0  0  0
   -6.1665   -2.1661    0.4360 H   0  0  0  0  0  0  0  0  0  0  0  0
   -4.6807   -0.7030   -0.8928 H   0  0  0  0  0  0  0  0  0  0  0  0
   -2.4379    0.2581   -1.2183 H   0  0  0  0  0  0  0  0  0  0  0  0
   -0.4193    3.1584   -1.8909 H   0  0  0  0  0  0  0  0  0  0  0  0
   -1.9160    5.0986   -1.5836 H   0  0  0  0  0  0  0  0  0  0  0  0
   -3.2507    5.3274    0.4930 H   0  0  0  0  0  0  0  0  0  0  0  0
   -3.0745    3.6136    2.2756 H   0  0  0  0  0  0  0  0  0  0  0  0
   -1.5664    1.6809    1.9957 H   0  0  0  0  0  0  0  0  0  0  0  0
  1  2  1  0
  2  3  1  0
  3  4  1  0
  4  5  1  0
  5  6  1  0
  6  7  2  0
  6  8  1  0
  8  9  1  0
  9 10  1  0
 10 11  2  0
  9 12  1  0
 12 13  2  0
 13 14  1  0
 14 15  2  0
 15 16  1  0
 15 17  1  0
 17 18  2  0
  8 19  1  0
 19 20  2  0
 20 21  1  0
 21 22  2  0
 22 23  1  0
 23 24  2  0
 10  5  1  0
 18 12  1  0
 24 19  1  0
  1 25  1  0
  1 26  1  0
  1 27  1  0
  2 28  1  0
  2 29  1  0
  3 30  1  0
  3 31  1  0
  4 32  1  0
  4 33  1  0
  5 34  1  0
 13 35  1  0
 14 36  1  0
 16 37  1  0
 17 38  1  0
 18 39  1  0
 20 40  1  0
 21 41  1  0
 22 42  1  0
 23 43  1  0
 24 44  1  0
M  END
$$$$
