
     RDKit          3D

 62 66  0  0  0  0  0  0  0  0999 V2000
   -0.2138   -0.5393    1.3959 C   0  0  2  0  0  0  0  0  0  0  0  0
   -0.7336   -1.5690    2.3828 C   0  0  0  0  0  0  0  0  0  0  0  0
   -2.2363   -1.6691    2.0791 C   0  0  0  0  0  0  0  0  0  0  0  0
   -2.5222   -0.8807    0.7610 C   0  0  2  0  0  0  0  0  0  0  0  0
   -3.2475    0.4614    1.1093 C   0  0  0  0  0  0  0  0  0  0  0  0
   -4.0072    1.0734   -0.0776 C   0  0  0  0  0  0  0  0  0  0  0  0
   -5.0196    0.0976   -0.7175 C   0  0  0  0  0  0  0  0  0  0  0  0
   -6.2579   -0.0737    0.1862 C   0  0  0  0  0  0  0  0  0  0  0  0
   -5.4707    0.6755   -2.0768 C   0  0  0  0  0  0  0  0  0  0  0  0
   -4.3743   -1.2550   -0.9137 C   0  0  0  0  0  0  0  0  0  0  0  0
   -4.8380   -2.0542   -1.7711 O   0  0  0  0  0  0  0  0  0  0  0  0
   -3.3566   -1.7056   -0.0679 O   0  0  0  0  0  0  0  0  0  0  0  0
   -1.0812   -0.7292    0.1382 C   0  0  2  0  0  0  0  0  0  0  0  0
   -0.7410   -2.0443   -0.6462 C   0  0  0  0  0  0  0  0  0  0  0  0
   -0.8117    0.4809   -0.7924 C   0  0  0  0  0  0  0  0  0  0  0  0
    0.6922    0.6327   -1.1336 C   0  0  0  0  0  0  0  0  0  0  0  0
    1.5999    0.6724    0.1325 C   0  0  2  0  0  0  0  0  0  0  0  0
    3.0977    0.7523   -0.1708 C   0  0  0  0  0  0  0  0  0  0  0  0
    3.5769    1.4617   -1.2913 C   0  0  0  0  0  0  0  0  0  0  0  0
    4.9455    1.6024   -1.5241 C   0  0  0  0  0  0  0  0  0  0  0  0
    5.8816    1.0583   -0.6344 C   0  0  0  0  0  0  0  0  0  0  0  0
    5.4182    0.3968    0.5124 C   0  0  0  0  0  0  0  0  0  0  0  0
    4.0441    0.2561    0.7655 C   0  0  0  0  0  0  0  0  0  0  0  0
    3.6325   -0.5105    2.0043 C   0  0  0  0  0  0  0  0  0  0  0  0
    2.1488   -0.3646    2.3513 C   0  0  0  0  0  0  0  0  0  0  0  0
    1.2982   -0.5223    1.0839 C   0  0  1  0  0  0  0  0  0  0  0  0
    7.3394    1.2003   -0.8716 C   0  0  0  0  0  0  0  0  0  0  0  0
    7.8651    1.4222   -2.1832 N   0  0  0  0  0  0  0  0  0  0  0  0
    8.1410    1.1107    0.0974 O   0  0  0  0  0  0  0  0  0  0  0  0
   -0.4445    0.4536    1.8485 H   0  0  0  0  0  0  0  0  0  0  0  0
   -0.5616   -1.2407    3.4313 H   0  0  0  0  0  0  0  0  0  0  0  0
   -0.2353   -2.5505    2.2243 H   0  0  0  0  0  0  0  0  0  0  0  0
   -2.8191   -1.2902    2.9465 H   0  0  0  0  0  0  0  0  0  0  0  0
   -2.5061   -2.7419    1.9593 H   0  0  0  0  0  0  0  0  0  0  0  0
   -3.9911    0.2925    1.9162 H   0  0  0  0  0  0  0  0  0  0  0  0
   -2.5394    1.2117    1.5150 H   0  0  0  0  0  0  0  0  0  0  0  0
   -3.2926    1.4208   -0.8468 H   0  0  0  0  0  0  0  0  0  0  0  0
   -4.5355    1.9873    0.2737 H   0  0  0  0  0  0  0  0  0  0  0  0
   -6.7288    0.9103    0.3988 H   0  0  0  0  0  0  0  0  0  0  0  0
   -7.0153   -0.7195   -0.3088 H   0  0  0  0  0  0  0  0  0  0  0  0
   -5.9901   -0.5530    1.1512 H   0  0  0  0  0  0  0  0  0  0  0  0
   -5.9010    1.6919   -1.9443 H   0  0  0  0  0  0  0  0  0  0  0  0
   -4.6100    0.7477   -2.7768 H   0  0  0  0  0  0  0  0  0  0  0  0
   -6.2464    0.0328   -2.5468 H   0  0  0  0  0  0  0  0  0  0  0  0
   -1.3788   -2.1217   -1.5526 H   0  0  0  0  0  0  0  0  0  0  0  0
    0.3022   -2.0976   -1.0048 H   0  0  0  0  0  0  0  0  0  0  0  0
   -0.9206   -2.9506   -0.0318 H   0  0  0  0  0  0  0  0  0  0  0  0
   -1.1200    1.4265   -0.3007 H   0  0  0  0  0  0  0  0  0  0  0  0
   -1.3902    0.3736   -1.7355 H   0  0  0  0  0  0  0  0  0  0  0  0
    0.7825    1.5895   -1.6878 H   0  0  0  0  0  0  0  0  0  0  0  0
    1.0258   -0.1705   -1.8226 H   0  0  0  0  0  0  0  0  0  0  0  0
    1.3455    1.6142    0.6701 H   0  0  0  0  0  0  0  0  0  0  0  0
    2.9054    1.9285   -1.9949 H   0  0  0  0  0  0  0  0  0  0  0  0
    5.2635    2.1684   -2.3892 H   0  0  0  0  0  0  0  0  0  0  0  0
    6.1296   -0.0231    1.2143 H   0  0  0  0  0  0  0  0  0  0  0  0
    4.2341   -0.1689    2.8749 H   0  0  0  0  0  0  0  0  0  0  0  0
    3.8590   -1.5864    1.8382 H   0  0  0  0  0  0  0  0  0  0  0  0
    1.8881   -1.1470    3.0957 H   0  0  0  0  0  0  0  0  0  0  0  0
    1.9667    0.6281    2.8200 H   0  0  0  0  0  0  0  0  0  0  0  0
    1.5980   -1.4787    0.6073 H   0  0  0  0  0  0  0  0  0  0  0  0
    7.2672    1.3490   -3.0348 H   0  0  0  0  0  0  0  0  0  0  0  0
    8.8896    1.5763   -2.3136 H   0  0  0  0  0  0  0  0  0  0  0  0
  1  2  1  0
  2  3  1  0
  3  4  1  0
  4  5  1  0
  5  6  1  0
  6  7  1  0
  7  8  1  0
  7  9  1  0
  7 10  1  0
 10 11  2  0
 10 12  1  0
  4 13  1  0
 13 14  1  6
 13 15  1  0
 15 16  1  0
 16 17  1  0
 17 18  1  0
 18 19  2  0
 19 20  1  0
 20 21  2  0
 21 22  1  0
 22 23  2  0
 23 24  1  0
 24 25  1  0
 25 26  1  0
 21 27  1  0
 27 28  1  0
 27 29  2  0
 13  1  1  0
 26 17  1  0
 26  1  1  0
  4 12  1  6
 23 18  1  0
  1 30  1  1
  2 31  1  0
  2 32  1  0
  3 33  1  0
  3 34  1  0
  5 35  1  0
  5 36  1  0
  6 37  1  0
  6 38  1  0
  8 39  1  0
  8 40  1  0
  8 41  1  0
  9 42  1  0
  9 43  1  0
  9 44  1  0
 14 45  1  0
 14 46  1  0
 14 47  1  0
 15 48  1  0
 15 49  1  0
 16 50  1  0
 16 51  1  0
 17 52  1  1
 19 53  1  0
 20 54  1  0
 22 55  1  0
 24 56  1  0
 24 57  1  0
 25 58  1  0
 25 59  1  0
 26 60  1  6
 28 61  1  0
 28 62  1  0
M  END
$$$$
