
     RDKit          3D

 61 65  0  0  0  0  0  0  0  0999 V2000
   -5.8281   -3.1454    0.4137 C   0  0  0  0  0  0  0  0  0  0  0  0
   -4.5600   -3.5380   -0.2102 N   0  0  0  0  0  0  0  0  0  0  0  0
   -4.4888   -4.8143   -0.9325 C   0  0  0  0  0  0  0  0  0  0  0  0
   -3.4080   -2.6605   -0.1351 C   0  0  0  0  0  0  0  0  0  0  0  0
   -2.1599   -3.1658   -0.1642 C   0  0  0  0  0  0  0  0  0  0  0  0
   -0.9151   -2.3219   -0.0882 C   0  0  0  0  0  0  0  0  0  0  0  0
   -1.1807   -0.8354    0.0386 C   0  0  0  0  0  0  0  0  0  0  0  0
   -0.1658    0.0589    0.1212 C   0  0  0  0  0  0  0  0  0  0  0  0
   -0.4576    1.5190    0.2451 C   0  0  0  0  0  0  0  0  0  0  0  0
    0.5666    2.4778    0.3299 C   0  0  0  0  0  0  0  0  0  0  0  0
    0.2607    3.8365    0.4391 C   0  0  0  0  0  0  0  0  0  0  0  0
   -1.0776    4.2775    0.4660 C   0  0  0  0  0  0  0  0  0  0  0  0
   -2.0998    3.3112    0.3783 C   0  0  0  0  0  0  0  0  0  0  0  0
   -1.7947    1.9514    0.2679 C   0  0  0  0  0  0  0  0  0  0  0  0
   -2.8322    1.0219    0.1774 O   0  0  0  0  0  0  0  0  0  0  0  0
   -2.5779   -0.3468    0.0658 C   0  0  0  0  0  0  0  0  0  0  0  0
   -3.6032   -1.1948   -0.0160 C   0  0  0  0  0  0  0  0  0  0  0  0
   -1.3947    5.6898    0.5800 N   0  0  0  0  0  0  0  0  0  0  0  0
   -2.7121    6.1226    1.0626 C   0  0  0  0  0  0  0  0  0  0  0  0
   -0.4034    6.7094    0.2147 C   0  0  0  0  0  0  0  0  0  0  0  0
    1.2439   -0.4034    0.1036 C   0  0  0  0  0  0  0  0  0  0  0  0
    1.8571   -0.6642    1.3372 C   0  0  0  0  0  0  0  0  0  0  0  0
    3.1736   -1.1164    1.3961 C   0  0  0  0  0  0  0  0  0  0  0  0
    3.9062   -1.3187    0.2207 C   0  0  0  0  0  0  0  0  0  0  0  0
    3.3021   -1.0547   -1.0180 C   0  0  0  0  0  0  0  0  0  0  0  0
    1.9743   -0.5918   -1.1006 C   0  0  0  0  0  0  0  0  0  0  0  0
    1.4010   -0.3201   -2.4485 C   0  0  0  0  0  0  0  0  0  0  0  0
    2.1029   -0.6955   -3.5916 O   0  0  0  0  0  0  0  0  0  0  0  0
    0.2882    0.2554   -2.5823 O   0  0  0  0  0  0  0  0  0  0  0  0
    5.2642   -1.7895    0.2825 N   0  0  0  0  0  0  0  0  0  0  0  0
    6.2658   -1.4882    1.2492 C   0  0  0  0  0  0  0  0  0  0  0  0
    6.1108   -0.6854    2.2070 O   0  0  0  0  0  0  0  0  0  0  0  0
    7.5078   -2.1943    0.9436 C   0  0  0  0  0  0  0  0  0  0  0  0
    7.3105   -2.9074   -0.1620 C   0  0  0  0  0  0  0  0  0  0  0  0
    5.9340   -2.6857   -0.5988 C   0  0  0  0  0  0  0  0  0  0  0  0
    5.3938   -3.2456   -1.5890 O   0  0  0  0  0  0  0  0  0  0  0  0
   -6.5121   -4.0141    0.5192 H   0  0  0  0  0  0  0  0  0  0  0  0
   -5.6409   -2.7414    1.4313 H   0  0  0  0  0  0  0  0  0  0  0  0
   -6.3323   -2.3761   -0.2075 H   0  0  0  0  0  0  0  0  0  0  0  0
   -5.5022   -5.2199   -1.1380 H   0  0  0  0  0  0  0  0  0  0  0  0
   -3.9814   -4.6685   -1.9099 H   0  0  0  0  0  0  0  0  0  0  0  0
   -3.9308   -5.5600   -0.3288 H   0  0  0  0  0  0  0  0  0  0  0  0
   -2.0068   -4.2341   -0.2309 H   0  0  0  0  0  0  0  0  0  0  0  0
   -0.3241   -2.6620    0.7888 H   0  0  0  0  0  0  0  0  0  0  0  0
   -0.3189   -2.5094   -1.0063 H   0  0  0  0  0  0  0  0  0  0  0  0
    1.6082    2.1850    0.3127 H   0  0  0  0  0  0  0  0  0  0  0  0
    1.0808    4.5370    0.5126 H   0  0  0  0  0  0  0  0  0  0  0  0
   -3.1413    3.6014    0.3824 H   0  0  0  0  0  0  0  0  0  0  0  0
   -4.6049   -0.7868   -0.0050 H   0  0  0  0  0  0  0  0  0  0  0  0
   -2.7247    7.2074    1.2998 H   0  0  0  0  0  0  0  0  0  0  0  0
   -2.9722    5.5749    1.9933 H   0  0  0  0  0  0  0  0  0  0  0  0
   -3.4810    5.9284    0.2859 H   0  0  0  0  0  0  0  0  0  0  0  0
   -0.8607    7.7191    0.1477 H   0  0  0  0  0  0  0  0  0  0  0  0
    0.0319    6.4740   -0.7797 H   0  0  0  0  0  0  0  0  0  0  0  0
    0.4019    6.7432    0.9780 H   0  0  0  0  0  0  0  0  0  0  0  0
    1.3064   -0.5245    2.2599 H   0  0  0  0  0  0  0  0  0  0  0  0
    3.6114   -1.3313    2.3617 H   0  0  0  0  0  0  0  0  0  0  0  0
    3.8847   -1.1843   -1.9204 H   0  0  0  0  0  0  0  0  0  0  0  0
    1.7285   -0.5152   -4.5155 H   0  0  0  0  0  0  0  0  0  0  0  0
    8.4313   -2.1490    1.5054 H   0  0  0  0  0  0  0  0  0  0  0  0
    8.0454   -3.5413   -0.6401 H   0  0  0  0  0  0  0  0  0  0  0  0
  1  2  1  0
  2  3  1  0
  2  4  1  0
  4  5  2  0
  5  6  1  0
  6  7  1  0
  7  8  2  0
  8  9  1  0
  9 10  2  0
 10 11  1  0
 11 12  2  0
 12 13  1  0
 13 14  2  0
 14 15  1  0
 15 16  1  0
 16 17  2  0
 12 18  1  0
 18 19  1  0
 18 20  1  0
  8 21  1  0
 21 22  2  0
 22 23  1  0
 23 24  2  0
 24 25  1  0
 25 26  2  0
 26 27  1  0
 27 28  1  0
 27 29  2  0
 24 30  1  0
 30 31  1  0
 31 32  2  0
 31 33  1  0
 33 34  2  0
 34 35  1  0
 35 36  2  0
 17  4  1  0
 26 21  1  0
 35 30  1  0
 16  7  1  0
 14  9  1  0
  1 37  1  0
  1 38  1  0
  1 39  1  0
  3 40  1  0
  3 41  1  0
  3 42  1  0
  5 43  1  0
  6 44  1  0
  6 45  1  0
 10 46  1  0
 11 47  1  0
 13 48  1  0
 17 49  1  0
 19 50  1  0
 19 51  1  0
 19 52  1  0
 20 53  1  0
 20 54  1  0
 20 55  1  0
 22 56  1  0
 23 57  1  0
 25 58  1  0
 28 59  1  0
 33 60  1  0
 34 61  1  0
M  END
$$$$
