
     RDKit          3D

 27 27  0  0  0  0  0  0  0  0999 V2000
   -1.4889   -1.5557   -0.8992 C   0  0  0  0  0  0  0  0  0  0  0  0
   -1.8834   -0.1480   -1.0421 N   0  0  0  0  0  0  0  0  0  0  0  0
   -1.6891    0.7005    0.1596 C   0  0  1  0  0  0  0  0  0  0  0  0
   -1.8364   -0.0402    1.5052 C   0  0  0  0  0  0  0  0  0  0  0  0
   -0.3800    1.5287    0.0676 C   0  0  2  0  0  0  0  0  0  0  0  0
   -0.4300    2.3790   -1.0516 O   0  0  0  0  0  0  0  0  0  0  0  0
    0.8679    0.6715   -0.0018 C   0  0  0  0  0  0  0  0  0  0  0  0
    1.5376    0.3068    1.1803 C   0  0  0  0  0  0  0  0  0  0  0  0
    2.6797   -0.4977    1.1279 C   0  0  0  0  0  0  0  0  0  0  0  0
    3.1653   -0.9462   -0.1025 C   0  0  0  0  0  0  0  0  0  0  0  0
    2.5094   -0.5915   -1.2835 C   0  0  0  0  0  0  0  0  0  0  0  0
    1.3669    0.2129   -1.2371 C   0  0  0  0  0  0  0  0  0  0  0  0
   -2.2180   -2.1083   -0.2680 H   0  0  0  0  0  0  0  0  0  0  0  0
   -0.4735   -1.6547   -0.4675 H   0  0  0  0  0  0  0  0  0  0  0  0
   -1.4758   -2.0299   -1.9026 H   0  0  0  0  0  0  0  0  0  0  0  0
   -2.8982   -0.1354   -1.3010 H   0  0  0  0  0  0  0  0  0  0  0  0
   -2.5104    1.4547    0.1653 H   0  0  0  0  0  0  0  0  0  0  0  0
   -2.8172   -0.5595    1.5466 H   0  0  0  0  0  0  0  0  0  0  0  0
   -1.8012    0.6886    2.3428 H   0  0  0  0  0  0  0  0  0  0  0  0
   -1.0263   -0.7813    1.6612 H   0  0  0  0  0  0  0  0  0  0  0  0
   -0.3072    2.1649    0.9823 H   0  0  0  0  0  0  0  0  0  0  0  0
   -1.0511    3.1210   -0.8278 H   0  0  0  0  0  0  0  0  0  0  0  0
    1.1732    0.6425    2.1433 H   0  0  0  0  0  0  0  0  0  0  0  0
    3.1879   -0.7747    2.0425 H   0  0  0  0  0  0  0  0  0  0  0  0
    4.0489   -1.5701   -0.1407 H   0  0  0  0  0  0  0  0  0  0  0  0
    2.8843   -0.9431   -2.2360 H   0  0  0  0  0  0  0  0  0  0  0  0
    0.8656    0.4655   -2.1628 H   0  0  0  0  0  0  0  0  0  0  0  0
  1  2  1  0
  2  3  1  0
  3  4  1  0
  3  5  1  0
  5  6  1  0
  5  7  1  0
  7  8  2  0
  8  9  1  0
  9 10  2  0
 10 11  1  0
 11 12  2  0
 12  7  1  0
  1 13  1  0
  1 14  1  0
  1 15  1  0
  2 16  1  0
  3 17  1  1
  4 18  1  0
  4 19  1  0
  4 20  1  0
  5 21  1  1
  6 22  1  0
  8 23  1  0
  9 24  1  0
 10 25  1  0
 11 26  1  0
 12 27  1  0
M  END
$$$$
