
     RDKit          3D

 44 47  0  0  0  0  0  0  0  0999 V2000
    7.2110    2.4837   -0.3321 F   0  0  0  0  0  0  0  0  0  0  0  0
    7.2363    1.2264    0.2417 C   0  0  0  0  0  0  0  0  0  0  0  0
    7.8135    0.3361   -0.6473 F   0  0  0  0  0  0  0  0  0  0  0  0
    8.0199    1.2669    1.3821 F   0  0  0  0  0  0  0  0  0  0  0  0
    5.8270    0.8047    0.5754 C   0  0  0  0  0  0  0  0  0  0  0  0
    5.2678    1.1158    1.8258 C   0  0  0  0  0  0  0  0  0  0  0  0
    3.9503    0.7588    2.1175 C   0  0  0  0  0  0  0  0  0  0  0  0
    3.1674    0.1117    1.1595 C   0  0  0  0  0  0  0  0  0  0  0  0
    3.6919   -0.1710   -0.1133 C   0  0  0  0  0  0  0  0  0  0  0  0
    5.0250    0.1771   -0.3948 C   0  0  0  0  0  0  0  0  0  0  0  0
    2.8790   -0.8484   -1.1506 C   0  0  0  0  0  0  0  0  0  0  0  0
    3.4034   -1.5741   -2.1686 N   0  0  0  0  0  0  0  0  0  0  0  0
    2.3944   -2.0140   -2.9194 N   0  0  0  0  0  0  0  0  0  0  0  0
    1.2721   -1.5433   -2.3467 C   0  0  0  0  0  0  0  0  0  0  0  0
   -0.0335   -1.7005   -2.7857 C   0  0  0  0  0  0  0  0  0  0  0  0
   -1.0396   -1.0643   -2.0414 C   0  0  0  0  0  0  0  0  0  0  0  0
   -0.6984   -0.2936   -0.8970 C   0  0  0  0  0  0  0  0  0  0  0  0
   -1.6855    0.3946   -0.1080 N   0  0  0  0  0  0  0  0  0  0  0  0
   -3.1371    0.2781   -0.2979 C   0  0  0  0  0  0  0  0  0  0  0  0
   -3.8629    1.4231    0.4360 C   0  0  0  0  0  0  0  0  0  0  0  0
   -5.3843    1.2976    0.2858 C   0  0  0  0  0  0  0  0  0  0  0  0
   -5.8756   -0.0626    0.7951 C   0  0  0  0  0  0  0  0  0  0  0  0
   -5.1533   -1.2112    0.0808 C   0  0  0  0  0  0  0  0  0  0  0  0
   -3.6319   -1.0831    0.2292 C   0  0  0  0  0  0  0  0  0  0  0  0
    0.6165   -0.1873   -0.5419 N   0  0  0  0  0  0  0  0  0  0  0  0
    1.5398   -0.8235   -1.2583 N   0  0  0  0  0  0  0  0  0  0  0  0
    5.8503    1.6309    2.5793 H   0  0  0  0  0  0  0  0  0  0  0  0
    3.5346    0.9824    3.0917 H   0  0  0  0  0  0  0  0  0  0  0  0
    2.1629   -0.1816    1.4292 H   0  0  0  0  0  0  0  0  0  0  0  0
    5.4356   -0.0282   -1.3762 H   0  0  0  0  0  0  0  0  0  0  0  0
   -0.2667   -2.2786   -3.6705 H   0  0  0  0  0  0  0  0  0  0  0  0
   -2.0631   -1.1691   -2.3697 H   0  0  0  0  0  0  0  0  0  0  0  0
   -1.3294    1.0130    0.6567 H   0  0  0  0  0  0  0  0  0  0  0  0
   -3.3756    0.3748   -1.3797 H   0  0  0  0  0  0  0  0  0  0  0  0
   -3.5990    1.4116    1.5171 H   0  0  0  0  0  0  0  0  0  0  0  0
   -3.5367    2.3983    0.0137 H   0  0  0  0  0  0  0  0  0  0  0  0
   -5.8784    2.1065    0.8659 H   0  0  0  0  0  0  0  0  0  0  0  0
   -5.6665    1.4212   -0.7830 H   0  0  0  0  0  0  0  0  0  0  0  0
   -5.7013   -0.1362    1.8913 H   0  0  0  0  0  0  0  0  0  0  0  0
   -6.9689   -0.1486    0.6157 H   0  0  0  0  0  0  0  0  0  0  0  0
   -5.4841   -2.1787    0.5159 H   0  0  0  0  0  0  0  0  0  0  0  0
   -5.4245   -1.2102   -0.9979 H   0  0  0  0  0  0  0  0  0  0  0  0
   -3.1487   -1.9106   -0.3312 H   0  0  0  0  0  0  0  0  0  0  0  0
   -3.3538   -1.1946    1.3007 H   0  0  0  0  0  0  0  0  0  0  0  0
  1  2  1  0
  2  3  1  0
  2  4  1  0
  2  5  1  0
  5  6  2  0
  6  7  1  0
  7  8  2  0
  8  9  1  0
  9 10  2  0
  9 11  1  0
 11 12  2  0
 12 13  1  0
 13 14  2  0
 14 15  1  0
 15 16  2  0
 16 17  1  0
 17 18  1  0
 18 19  1  0
 19 20  1  0
 20 21  1  0
 21 22  1  0
 22 23  1  0
 23 24  1  0
 17 25  2  0
 25 26  1  0
 10  5  1  0
 26 11  1  0
 26 14  1  0
 24 19  1  0
  6 27  1  0
  7 28  1  0
  8 29  1  0
 10 30  1  0
 15 31  1  0
 16 32  1  0
 18 33  1  0
 19 34  1  0
 20 35  1  0
 20 36  1  0
 21 37  1  0
 21 38  1  0
 22 39  1  0
 22 40  1  0
 23 41  1  0
 23 42  1  0
 24 43  1  0
 24 44  1  0
M  END
$$$$
