
     RDKit          3D

 45 48  0  0  0  0  0  0  0  0999 V2000
   -3.6188    3.6421   -2.6434 C   0  0  0  0  0  0  0  0  0  0  0  0
   -2.5687    2.7799   -2.0071 C   0  0  0  0  0  0  0  0  0  0  0  0
   -2.9169    1.8865   -0.9832 C   0  0  0  0  0  0  0  0  0  0  0  0
   -1.9504    1.0544   -0.4089 C   0  0  0  0  0  0  0  0  0  0  0  0
   -2.3238    0.1575    0.6406 N   0  0  0  0  0  0  0  0  0  0  0  0
   -1.9653    0.3965    2.0325 C   0  0  0  0  0  0  0  0  0  0  0  0
   -2.3423   -0.8547    2.8554 C   0  0  0  0  0  0  0  0  0  0  0  0
   -2.2994   -2.1004    1.9609 C   0  0  0  0  0  0  0  0  0  0  0  0
   -2.6349   -1.4983    0.3403 S   0  0  0  0  0  6  0  0  0  0  0  0
   -4.0663   -1.7188   -0.0593 O   0  0  0  0  0  0  0  0  0  0  0  0
   -1.6846   -2.0708   -0.6737 O   0  0  0  0  0  0  0  0  0  0  0  0
   -0.6269    1.0952   -0.8718 C   0  0  0  0  0  0  0  0  0  0  0  0
    0.2824    0.2878   -0.3372 O   0  0  0  0  0  0  0  0  0  0  0  0
    1.5543    0.2594   -0.7230 C   0  0  0  0  0  0  0  0  0  0  0  0
    2.0025    1.1499   -1.7250 C   0  0  0  0  0  0  0  0  0  0  0  0
    3.3452    1.2375   -2.1025 O   0  0  0  0  0  0  0  0  0  0  0  0
    1.0710    1.9993   -2.3332 C   0  0  0  0  0  0  0  0  0  0  0  0
    1.4468    2.7847   -3.2464 O   0  0  0  0  0  0  0  0  0  0  0  0
   -0.2679    1.9806   -1.9093 C   0  0  0  0  0  0  0  0  0  0  0  0
   -1.2468    2.8157   -2.4776 C   0  0  0  0  0  0  0  0  0  0  0  0
    2.4409   -0.7265   -0.0730 C   0  0  0  0  0  0  0  0  0  0  0  0
    3.2311   -1.6021   -0.8351 C   0  0  0  0  0  0  0  0  0  0  0  0
    4.0217   -2.5668   -0.2056 C   0  0  0  0  0  0  0  0  0  0  0  0
    4.0163   -2.6838    1.1910 C   0  0  0  0  0  0  0  0  0  0  0  0
    4.8066   -3.6466    1.8167 O   0  0  0  0  0  0  0  0  0  0  0  0
    3.2057   -1.8298    1.9582 C   0  0  0  0  0  0  0  0  0  0  0  0
    3.1682   -1.9281    3.3487 O   0  0  0  0  0  0  0  0  0  0  0  0
    2.4170   -0.8634    1.3237 C   0  0  0  0  0  0  0  0  0  0  0  0
   -4.0676    3.1026   -3.5033 H   0  0  0  0  0  0  0  0  0  0  0  0
   -3.1772    4.5955   -3.0039 H   0  0  0  0  0  0  0  0  0  0  0  0
   -4.4188    3.8899   -1.9136 H   0  0  0  0  0  0  0  0  0  0  0  0
   -3.9396    1.8372   -0.6286 H   0  0  0  0  0  0  0  0  0  0  0  0
   -0.8715    0.5771    2.1107 H   0  0  0  0  0  0  0  0  0  0  0  0
   -2.5079    1.2868    2.4163 H   0  0  0  0  0  0  0  0  0  0  0  0
   -3.3784   -0.7288    3.2394 H   0  0  0  0  0  0  0  0  0  0  0  0
   -1.6608   -0.9727    3.7252 H   0  0  0  0  0  0  0  0  0  0  0  0
   -1.2836   -2.5496    1.9833 H   0  0  0  0  0  0  0  0  0  0  0  0
   -3.0558   -2.8511    2.2734 H   0  0  0  0  0  0  0  0  0  0  0  0
    4.0889    0.7606   -1.6100 H   0  0  0  0  0  0  0  0  0  0  0  0
   -0.9874    3.4940   -3.2821 H   0  0  0  0  0  0  0  0  0  0  0  0
    3.2254   -1.5475   -1.9168 H   0  0  0  0  0  0  0  0  0  0  0  0
    4.6320   -3.2300   -0.8054 H   0  0  0  0  0  0  0  0  0  0  0  0
    5.3979   -4.2749    1.2852 H   0  0  0  0  0  0  0  0  0  0  0  0
    3.7187   -2.6115    3.8547 H   0  0  0  0  0  0  0  0  0  0  0  0
    1.7890   -0.2145    1.9229 H   0  0  0  0  0  0  0  0  0  0  0  0
  1  2  1  0
  2  3  2  0
  3  4  1  0
  4  5  1  0
  5  6  1  0
  6  7  1  0
  7  8  1  0
  8  9  1  0
  9 10  2  0
  9 11  2  0
  4 12  2  0
 12 13  1  0
 13 14  1  0
 14 15  2  0
 15 16  1  0
 15 17  1  0
 17 18  2  0
 17 19  1  0
 19 20  2  0
 14 21  1  0
 21 22  2  0
 22 23  1  0
 23 24  2  0
 24 25  1  0
 24 26  1  0
 26 27  1  0
 26 28  2  0
 20  2  1  0
 28 21  1  0
  9  5  1  0
 19 12  1  0
  1 29  1  0
  1 30  1  0
  1 31  1  0
  3 32  1  0
  6 33  1  0
  6 34  1  0
  7 35  1  0
  7 36  1  0
  8 37  1  0
  8 38  1  0
 16 39  1  0
 20 40  1  0
 22 41  1  0
 23 42  1  0
 25 43  1  0
 27 44  1  0
 28 45  1  0
M  END
$$$$
