
     RDKit          3D

 38 40  0  0  0  0  0  0  0  0999 V2000
    5.0148    2.2309    0.2611 C   0  0  0  0  0  0  0  0  0  0  0  0
    3.8006    2.0853    0.9904 O   0  0  0  0  0  0  0  0  0  0  0  0
    2.8076    1.1398    0.6940 C   0  0  0  0  0  0  0  0  0  0  0  0
    2.9253    0.2301   -0.3738 C   0  0  0  0  0  0  0  0  0  0  0  0
    1.9068   -0.6927   -0.6294 C   0  0  0  0  0  0  0  0  0  0  0  0
    0.7570   -0.7226    0.1744 C   0  0  0  0  0  0  0  0  0  0  0  0
    0.6422    0.1846    1.2394 C   0  0  0  0  0  0  0  0  0  0  0  0
    1.6603    1.1071    1.4943 C   0  0  0  0  0  0  0  0  0  0  0  0
   -0.3281   -1.6891   -0.1046 C   0  0  0  0  0  0  0  0  0  0  0  0
   -0.2094   -3.0557   -0.3039 C   0  0  0  0  0  0  0  0  0  0  0  0
    1.0528   -3.8572   -0.3666 C   0  0  0  0  0  0  0  0  0  0  0  0
   -1.4405   -3.5860   -0.4180 N   0  0  0  0  0  0  0  0  0  0  0  0
   -2.3491   -2.6335   -0.2865 N   0  0  0  0  0  0  0  0  0  0  0  0
   -1.7023   -1.4647   -0.1002 C   0  0  0  0  0  0  0  0  0  0  0  0
   -2.4051   -0.1767    0.0756 C   0  0  0  0  0  0  0  0  0  0  0  0
   -2.0215    0.9781   -0.6376 C   0  0  0  0  0  0  0  0  0  0  0  0
   -0.9860    0.9208   -1.5701 O   0  0  0  0  0  0  0  0  0  0  0  0
   -2.7011    2.1865   -0.4248 C   0  0  0  0  0  0  0  0  0  0  0  0
   -3.7752    2.2468    0.4721 C   0  0  0  0  0  0  0  0  0  0  0  0
   -4.4551    3.4436    0.6869 O   0  0  0  0  0  0  0  0  0  0  0  0
   -4.1737    1.0953    1.1552 C   0  0  0  0  0  0  0  0  0  0  0  0
   -3.4978   -0.1108    0.9545 C   0  0  0  0  0  0  0  0  0  0  0  0
    5.6052    1.2917    0.3110 H   0  0  0  0  0  0  0  0  0  0  0  0
    4.7962    2.4896   -0.7965 H   0  0  0  0  0  0  0  0  0  0  0  0
    5.6119    3.0503    0.7111 H   0  0  0  0  0  0  0  0  0  0  0  0
    3.7962    0.2312   -1.0148 H   0  0  0  0  0  0  0  0  0  0  0  0
    2.0078   -1.3680   -1.4691 H   0  0  0  0  0  0  0  0  0  0  0  0
   -0.2306    0.1731    1.8802 H   0  0  0  0  0  0  0  0  0  0  0  0
    1.5580    1.8001    2.3198 H   0  0  0  0  0  0  0  0  0  0  0  0
    0.8410   -4.9204   -0.1278 H   0  0  0  0  0  0  0  0  0  0  0  0
    1.7893   -3.4717    0.3691 H   0  0  0  0  0  0  0  0  0  0  0  0
    1.4812   -3.7969   -1.3882 H   0  0  0  0  0  0  0  0  0  0  0  0
   -1.6681   -4.5936   -0.5698 H   0  0  0  0  0  0  0  0  0  0  0  0
   -0.6942    1.7385   -2.0924 H   0  0  0  0  0  0  0  0  0  0  0  0
   -2.4017    3.0757   -0.9654 H   0  0  0  0  0  0  0  0  0  0  0  0
   -4.1919    4.2959    0.2062 H   0  0  0  0  0  0  0  0  0  0  0  0
   -5.0069    1.1356    1.8452 H   0  0  0  0  0  0  0  0  0  0  0  0
   -3.8159   -0.9909    1.5003 H   0  0  0  0  0  0  0  0  0  0  0  0
  1  2  1  0
  2  3  1  0
  3  4  2  0
  4  5  1  0
  5  6  2  0
  6  7  1  0
  7  8  2  0
  6  9  1  0
  9 10  2  0
 10 11  1  0
 10 12  1  0
 12 13  1  0
 13 14  2  0
 14 15  1  0
 15 16  2  0
 16 17  1  0
 16 18  1  0
 18 19  2  0
 19 20  1  0
 19 21  1  0
 21 22  2  0
  8  3  1  0
 14  9  1  0
 22 15  1  0
  1 23  1  0
  1 24  1  0
  1 25  1  0
  4 26  1  0
  5 27  1  0
  7 28  1  0
  8 29  1  0
 11 30  1  0
 11 31  1  0
 11 32  1  0
 12 33  1  0
 17 34  1  0
 18 35  1  0
 20 36  1  0
 21 37  1  0
 22 38  1  0
M  END
$$$$
