
     RDKit          3D

 59 62  0  0  0  0  0  0  0  0999 V2000
   -1.2376    2.3888    2.6752 C   0  0  0  0  0  0  0  0  0  0  0  0
   -1.5284    1.3216    1.6742 C   0  0  0  0  0  0  0  0  0  0  0  0
   -0.5083    0.6729    1.0569 N   0  0  0  0  0  0  0  0  0  0  0  0
   -0.7429   -0.2791    0.1151 C   0  0  0  0  0  0  0  0  0  0  0  0
    0.3462   -0.9632   -0.5281 N   0  0  0  0  0  0  0  0  0  0  0  0
    1.7316   -0.7242   -0.2436 C   0  0  0  0  0  0  0  0  0  0  0  0
    2.1798    0.1668    0.6684 N   0  0  0  0  0  0  0  0  0  0  0  0
    3.5377    0.1848    0.7336 C   0  0  0  0  0  0  0  0  0  0  0  0
    4.1770   -0.6988   -0.1357 C   0  0  0  0  0  0  0  0  0  0  0  0
    2.9957   -1.5297   -1.0039 S   0  0  0  0  0  0  0  0  0  0  0  0
    5.6284   -0.9103   -0.2764 C   0  0  0  0  0  0  0  0  0  0  0  0
    6.0426   -1.8369   -1.0249 O   0  0  0  0  0  0  0  0  0  0  0  0
    6.5700   -0.0697    0.4086 N   0  0  0  0  0  0  0  0  0  0  0  0
    7.9813   -0.3357    0.3915 C   0  0  0  0  0  0  0  0  0  0  0  0
    8.8708    0.6022   -0.1802 C   0  0  0  0  0  0  0  0  0  0  0  0
    8.3586    1.8802   -0.7865 C   0  0  0  0  0  0  0  0  0  0  0  0
   10.2511    0.3425   -0.1707 C   0  0  0  0  0  0  0  0  0  0  0  0
   10.7449   -0.8356    0.3908 C   0  0  0  0  0  0  0  0  0  0  0  0
    9.8703   -1.7597    0.9619 C   0  0  0  0  0  0  0  0  0  0  0  0
    8.4935   -1.5152    0.9722 C   0  0  0  0  0  0  0  0  0  0  0  0
    7.4423   -2.6725    1.7800 Cl  0  0  0  0  0  0  0  0  0  0  0  0
   -2.0633   -0.5888   -0.2320 C   0  0  0  0  0  0  0  0  0  0  0  0
   -3.1167    0.0963    0.4002 C   0  0  0  0  0  0  0  0  0  0  0  0
   -2.8127    1.0390    1.3351 N   0  0  0  0  0  0  0  0  0  0  0  0
   -4.5027   -0.1775    0.0793 N   0  0  0  0  0  0  0  0  0  0  0  0
   -5.5616    0.6860    0.6263 C   0  0  0  0  0  0  0  0  0  0  0  0
   -6.7671    0.8076   -0.3329 C   0  0  0  0  0  0  0  0  0  0  0  0
   -6.9552   -0.3603   -1.2328 N   0  0  0  0  0  0  0  0  0  0  0  0
   -8.3768   -0.5538   -1.5912 C   0  0  0  0  0  0  0  0  0  0  0  0
   -8.8791    0.5771   -2.4969 C   0  0  0  0  0  0  0  0  0  0  0  0
  -10.1668    0.2860   -2.9679 O   0  0  0  0  0  0  0  0  0  0  0  0
   -6.3954   -1.5938   -0.6577 C   0  0  0  0  0  0  0  0  0  0  0  0
   -4.8784   -1.4469   -0.5629 C   0  0  0  0  0  0  0  0  0  0  0  0
   -0.2843    2.1707    3.2015 H   0  0  0  0  0  0  0  0  0  0  0  0
   -2.0543    2.4422    3.4258 H   0  0  0  0  0  0  0  0  0  0  0  0
   -1.1530    3.3669    2.1578 H   0  0  0  0  0  0  0  0  0  0  0  0
    0.1246   -1.6840   -1.2517 H   0  0  0  0  0  0  0  0  0  0  0  0
    4.0579    0.8341    1.4235 H   0  0  0  0  0  0  0  0  0  0  0  0
    6.2525    0.8529    0.7791 H   0  0  0  0  0  0  0  0  0  0  0  0
    9.1499    2.4025   -1.3653 H   0  0  0  0  0  0  0  0  0  0  0  0
    8.0049    2.5577    0.0186 H   0  0  0  0  0  0  0  0  0  0  0  0
    7.5177    1.6634   -1.4788 H   0  0  0  0  0  0  0  0  0  0  0  0
   10.9480    1.0518   -0.6001 H   0  0  0  0  0  0  0  0  0  0  0  0
   11.8100   -1.0284    0.3918 H   0  0  0  0  0  0  0  0  0  0  0  0
   10.2660   -2.6623    1.4100 H   0  0  0  0  0  0  0  0  0  0  0  0
   -2.2507   -1.3409   -0.9855 H   0  0  0  0  0  0  0  0  0  0  0  0
   -5.1786    1.7095    0.8300 H   0  0  0  0  0  0  0  0  0  0  0  0
   -5.9022    0.2574    1.5940 H   0  0  0  0  0  0  0  0  0  0  0  0
   -6.6099    1.7051   -0.9694 H   0  0  0  0  0  0  0  0  0  0  0  0
   -7.6730    0.9997    0.2857 H   0  0  0  0  0  0  0  0  0  0  0  0
   -9.0115   -0.6257   -0.6790 H   0  0  0  0  0  0  0  0  0  0  0  0
   -8.4995   -1.5034   -2.1590 H   0  0  0  0  0  0  0  0  0  0  0  0
   -8.8849    1.5475   -1.9517 H   0  0  0  0  0  0  0  0  0  0  0  0
   -8.1986    0.6766   -3.3691 H   0  0  0  0  0  0  0  0  0  0  0  0
  -10.7883    0.4421   -2.2094 H   0  0  0  0  0  0  0  0  0  0  0  0
   -6.6122   -2.4687   -1.3102 H   0  0  0  0  0  0  0  0  0  0  0  0
   -6.8304   -1.7942    0.3481 H   0  0  0  0  0  0  0  0  0  0  0  0
   -4.4652   -1.4715   -1.5944 H   0  0  0  0  0  0  0  0  0  0  0  0
   -4.4635   -2.3011    0.0150 H   0  0  0  0  0  0  0  0  0  0  0  0
  1  2  1  0
  2  3  2  0
  3  4  1  0
  4  5  1  0
  5  6  1  0
  6  7  2  0
  7  8  1  0
  8  9  2  0
  9 10  1  0
  9 11  1  0
 11 12  2  0
 11 13  1  0
 13 14  1  0
 14 15  2  0
 15 16  1  0
 15 17  1  0
 17 18  2  0
 18 19  1  0
 19 20  2  0
 20 21  1  0
  4 22  2  0
 22 23  1  0
 23 24  2  0
 23 25  1  0
 25 26  1  0
 26 27  1  0
 27 28  1  0
 28 29  1  0
 29 30  1  0
 30 31  1  0
 28 32  1  0
 32 33  1  0
 24  2  1  0
 33 25  1  0
 10  6  1  0
 20 14  1  0
  1 34  1  0
  1 35  1  0
  1 36  1  0
  5 37  1  0
  8 38  1  0
 13 39  1  0
 16 40  1  0
 16 41  1  0
 16 42  1  0
 17 43  1  0
 18 44  1  0
 19 45  1  0
 22 46  1  0
 26 47  1  0
 26 48  1  0
 27 49  1  0
 27 50  1  0
 29 51  1  0
 29 52  1  0
 30 53  1  0
 30 54  1  0
 31 55  1  0
 32 56  1  0
 32 57  1  0
 33 58  1  0
 33 59  1  0
M  END
$$$$
