
     RDKit          2D

194199  0  0  0  0  0  0  0  0999 V2000
    9.3481   -1.2990    0.0000 C   0  0  0  0  0  0  0  0  0  0  0  0
   10.6471   -2.0490    0.0000 C   0  0  0  0  0  0  0  0  0  0  0  0
   11.9462   -2.7990    0.0000 C   0  0  0  0  0  0  0  0  0  0  0  0
    9.8971   -3.3481    0.0000 C   0  0  0  0  0  0  0  0  0  0  0  0
    9.1471   -4.6471    0.0000 C   0  0  0  0  0  0  0  0  0  0  0  0
    7.8481   -3.8971    0.0000 N   0  0  0  0  0  0  0  0  0  0  0  0
    6.5490   -4.6471    0.0000 C   0  0  0  0  0  0  0  0  0  0  0  0
    6.1861   -6.1025    0.0000 O   0  0  0  0  0  0  0  0  0  0  0  0
    5.2500   -3.8971    0.0000 C   0  0  0  0  0  0  0  0  0  0  0  0
    3.9510   -3.1471    0.0000 C   0  0  0  0  0  0  0  0  0  0  0  0
    2.6519   -2.3971    0.0000 C   0  0  0  0  0  0  0  0  0  0  0  0
    1.3529   -1.6471    0.0000 C   0  0  0  0  0  0  0  0  0  0  0  0
    0.0538   -0.8971    0.0000 N   0  0  0  0  0  0  0  0  0  0  0  0
   -1.2452   -1.6471    0.0000 C   0  0  0  0  0  0  0  0  0  0  0  0
   -2.5442   -0.8971    0.0000 N   0  0  0  0  0  0  0  0  0  0  0  0
   -1.6082   -3.1025    0.0000 O   0  0  0  0  0  0  0  0  0  0  0  0
    4.5000   -5.1962    0.0000 N   0  0  0  0  0  0  0  0  0  0  0  0
    3.0000   -5.1962    0.0000 C   0  0  0  0  0  0  0  0  0  0  0  0
    2.0972   -6.3941    0.0000 O   0  0  0  0  0  0  0  0  0  0  0  0
    2.2500   -3.8971    0.0000 C   0  0  0  0  0  0  0  0  0  0  0  0
    1.5000   -2.5981    0.0000 C   0  0  0  0  0  0  0  0  0  0  0  0
    0.7500   -1.2990    0.0000 C   0  0  0  0  0  0  0  0  0  0  0  0
    1.5000    0.0000    0.0000 C   0  0  0  0  0  0  0  0  0  0  0  0
    0.7500    1.2990    0.0000 C   0  0  0  0  0  0  0  0  0  0  0  0
   -0.7500    1.2990    0.0000 C   0  0  0  0  0  0  0  0  0  0  0  0
   -1.5000    2.5981    0.0000 O   0  0  0  0  0  0  0  0  0  0  0  0
   -1.5000    0.0000    0.0000 C   0  0  0  0  0  0  0  0  0  0  0  0
   -0.7500   -1.2990    0.0000 C   0  0  0  0  0  0  0  0  0  0  0  0
    3.5490   -3.1471    0.0000 N   0  0  0  0  0  0  0  0  0  0  0  0
    4.8481   -3.8971    0.0000 C   0  0  0  0  0  0  0  0  0  0  0  0
    5.3857   -5.2974    0.0000 O   0  0  0  0  0  0  0  0  0  0  0  0
    6.1471   -3.1471    0.0000 C   0  0  0  0  0  0  0  0  0  0  0  0
    7.4462   -2.3971    0.0000 C   0  0  0  0  0  0  0  0  0  0  0  0
    8.7452   -1.6471    0.0000 O   0  0  0  0  0  0  0  0  0  0  0  0
    6.8971   -4.4462    0.0000 N   0  0  0  0  0  0  0  0  0  0  0  0
    6.1471   -5.7452    0.0000 C   0  0  0  0  0  0  0  0  0  0  0  0
    4.7468   -6.2829    0.0000 O   0  0  0  0  0  0  0  0  0  0  0  0
    6.8971   -7.0442    0.0000 C   0  0  0  0  0  0  0  0  0  0  0  0
    7.6471   -8.3433    0.0000 C   0  0  0  0  0  0  0  0  0  0  0  0
    8.3971   -9.6423    0.0000 C   0  0  0  0  0  0  0  0  0  0  0  0
    7.6471  -10.9413    0.0000 C   0  0  0  0  0  0  0  0  0  0  0  0
    8.3971  -12.2404    0.0000 N   0  0  0  0  0  0  0  0  0  0  0  0
    9.8971  -12.2404    0.0000 C   0  0  0  0  0  0  0  0  0  0  0  0
   10.6471  -10.9413    0.0000 C   0  0  0  0  0  0  0  0  0  0  0  0
    9.8971   -9.6423    0.0000 C   0  0  0  0  0  0  0  0  0  0  0  0
    5.5981   -7.7942    0.0000 N   0  0  0  0  0  0  0  0  0  0  0  0
    4.2990   -7.0442    0.0000 C   0  0  0  0  0  0  0  0  0  0  0  0
    4.8367   -5.6439    0.0000 O   0  0  0  0  0  0  0  0  0  0  0  0
    3.0000   -7.7942    0.0000 C   0  0  0  0  0  0  0  0  0  0  0  0
    1.7010   -8.5442    0.0000 C   0  0  0  0  0  0  0  0  0  0  0  0
    0.4019   -9.2942    0.0000 C   0  0  0  0  0  0  0  0  0  0  0  0
   -0.8971   -8.5442    0.0000 C   0  0  0  0  0  0  0  0  0  0  0  0
   -2.1962   -9.2942    0.0000 C   0  0  0  0  0  0  0  0  0  0  0  0
   -2.1962  -10.7942    0.0000 C   0  0  0  0  0  0  0  0  0  0  0  0
   -3.4952  -11.5442    0.0000 Cl  0  0  0  0  0  0  0  0  0  0  0  0
   -0.8971  -11.5442    0.0000 C   0  0  0  0  0  0  0  0  0  0  0  0
    0.4019  -10.7942    0.0000 C   0  0  0  0  0  0  0  0  0  0  0  0
    2.2500   -6.4952    0.0000 N   0  0  0  0  0  0  0  0  0  0  0  0
    3.0000   -5.1962    0.0000 C   0  0  0  0  0  0  0  0  0  0  0  0
    4.4003   -5.7338    0.0000 O   0  0  0  0  0  0  0  0  0  0  0  0
    2.2500   -3.8971    0.0000 C   0  0  0  0  0  0  0  0  0  0  0  0
    1.5000   -2.5981    0.0000 C   0  0  0  0  0  0  0  0  0  0  0  0
    0.7500   -1.2990    0.0000 C   0  0  0  0  0  0  0  0  0  0  0  0
    1.5000    0.0000    0.0000 C   0  0  0  0  0  0  0  0  0  0  0  0
    0.7500    1.2990    0.0000 C   0  0  0  0  0  0  0  0  0  0  0  0
    1.5000    2.5981    0.0000 C   0  0  0  0  0  0  0  0  0  0  0  0
    0.7500    3.8971    0.0000 C   0  0  0  0  0  0  0  0  0  0  0  0
   -0.7500    3.8971    0.0000 C   0  0  0  0  0  0  0  0  0  0  0  0
   -1.5000    2.5981    0.0000 C   0  0  0  0  0  0  0  0  0  0  0  0
   -0.7500    1.2990    0.0000 C   0  0  0  0  0  0  0  0  0  0  0  0
   -1.5000    0.0000    0.0000 C   0  0  0  0  0  0  0  0  0  0  0  0
   -0.7500   -1.2990    0.0000 C   0  0  0  0  0  0  0  0  0  0  0  0
    0.9510   -4.6471    0.0000 N   0  0  0  0  0  0  0  0  0  0  0  0
    0.9510   -6.1471    0.0000 C   0  0  0  0  0  0  0  0  0  0  0  0
   -0.3481   -6.8971    0.0000 C   0  0  0  0  0  0  0  0  0  0  0  0
    1.8948   -7.3129    0.0000 O   0  0  0  0  0  0  0  0  0  0  0  0
    8.3971   -5.9462    0.0000 C   0  0  0  0  0  0  0  0  0  0  0  0
    6.9417   -6.3091    0.0000 O   0  0  0  0  0  0  0  0  0  0  0  0
    9.1471   -7.2452    0.0000 N   0  0  0  0  0  0  0  0  0  0  0  0
    8.3971   -8.5442    0.0000 C   0  0  0  0  0  0  0  0  0  0  0  0
    9.6962   -9.2942    0.0000 C   0  0  0  0  0  0  0  0  0  0  0  0
   10.9952  -10.0442    0.0000 C   0  0  0  0  0  0  0  0  0  0  0  0
   12.2942  -10.7942    0.0000 C   0  0  0  0  0  0  0  0  0  0  0  0
   13.5933  -11.5442    0.0000 N   0  0  0  0  0  0  0  0  0  0  0  0
   13.5933  -13.0442    0.0000 C   0  0  0  0  0  0  0  0  0  0  0  0
   12.2942  -13.7942    0.0000 N   0  0  0  0  0  0  0  0  0  0  0  0
   14.8923  -13.7942    0.0000 N   0  0  0  0  0  0  0  0  0  0  0  0
    7.0981   -7.7942    0.0000 C   0  0  0  0  0  0  0  0  0  0  0  0
    7.4610   -6.3388    0.0000 O   0  0  0  0  0  0  0  0  0  0  0  0
    5.7990   -8.5442    0.0000 N   0  0  0  0  0  0  0  0  0  0  0  0
    4.4287   -7.9341    0.0000 C   0  0  0  0  0  0  0  0  0  0  0  0
    3.4250   -9.0488    0.0000 C   0  0  0  0  0  0  0  0  0  0  0  0
    4.1750  -10.3479    0.0000 C   0  0  0  0  0  0  0  0  0  0  0  0
    5.6422  -10.0360    0.0000 C   0  0  0  0  0  0  0  0  0  0  0  0
    5.7990  -11.5278    0.0000 C   0  0  0  0  0  0  0  0  0  0  0  0
    4.5855  -12.4095    0.0000 O   0  0  0  0  0  0  0  0  0  0  0  0
    7.1694  -12.1379    0.0000 N   0  0  0  0  0  0  0  0  0  0  0  0
    7.3261  -13.6297    0.0000 C   0  0  0  0  0  0  0  0  0  0  0  0
    8.8179  -13.4729    0.0000 C   0  0  0  0  0  0  0  0  0  0  0  0
    5.8344  -13.7865    0.0000 C   0  0  0  0  0  0  0  0  0  0  0  0
    5.2243  -15.1568    0.0000 N   0  0  0  0  0  0  0  0  0  0  0  0
    4.6852  -12.8224    0.0000 O   0  0  0  0  0  0  0  0  0  0  0  0
    8.0490   -0.5490    0.0000 H   0  0  0  0  0  0  0  0  0  0  0  0
   10.2508   -0.1011    0.0000 H   0  0  0  0  0  0  0  0  0  0  0  0
    9.9341    0.0817    0.0000 H   0  0  0  0  0  0  0  0  0  0  0  0
   11.3971   -0.7500    0.0000 H   0  0  0  0  0  0  0  0  0  0  0  0
   13.2452   -3.5490    0.0000 H   0  0  0  0  0  0  0  0  0  0  0  0
   12.8489   -1.6011    0.0000 H   0  0  0  0  0  0  0  0  0  0  0  0
   12.5322   -1.4183    0.0000 H   0  0  0  0  0  0  0  0  0  0  0  0
    8.6992   -2.4453    0.0000 H   0  0  0  0  0  0  0  0  0  0  0  0
   11.1962   -4.0981    0.0000 H   0  0  0  0  0  0  0  0  0  0  0  0
   10.4462   -5.3971    0.0000 H   0  0  0  0  0  0  0  0  0  0  0  0
    8.0309   -2.4083    0.0000 H   0  0  0  0  0  0  0  0  0  0  0  0
    6.2920   -2.8182    0.0000 H   0  0  0  0  0  0  0  0  0  0  0  0
    4.5370   -1.7663    0.0000 H   0  0  0  0  0  0  0  0  0  0  0  0
    2.6788   -3.9419    0.0000 H   0  0  0  0  0  0  0  0  0  0  0  0
    3.2380   -1.0163    0.0000 H   0  0  0  0  0  0  0  0  0  0  0  0
    1.3798   -3.1919    0.0000 H   0  0  0  0  0  0  0  0  0  0  0  0
    2.6250   -0.8524    0.0000 H   0  0  0  0  0  0  0  0  0  0  0  0
    0.3108   -2.7261    0.0000 H   0  0  0  0  0  0  0  0  0  0  0  0
    0.0538    0.6029    0.0000 H   0  0  0  0  0  0  0  0  0  0  0  0
   -3.8433   -1.6471    0.0000 H   0  0  0  0  0  0  0  0  0  0  0  0
   -2.9072    0.5583    0.0000 H   0  0  0  0  0  0  0  0  0  0  0  0
    5.4028   -6.3941    0.0000 H   0  0  0  0  0  0  0  0  0  0  0  0
    0.8081   -4.3105    0.0000 H   0  0  0  0  0  0  0  0  0  0  0  0
    2.2947   -1.3259    0.0000 H   0  0  0  0  0  0  0  0  0  0  0  0
    0.1192   -3.1841    0.0000 H   0  0  0  0  0  0  0  0  0  0  0  0
    2.9888    0.1828    0.0000 H   0  0  0  0  0  0  0  0  0  0  0  0
    1.7920    2.3780    0.0000 H   0  0  0  0  0  0  0  0  0  0  0  0
   -2.9888    2.7809    0.0000 H   0  0  0  0  0  0  0  0  0  0  0  0
   -2.9554    0.3630    0.0000 H   0  0  0  0  0  0  0  0  0  0  0  0
   -1.1634   -2.7410    0.0000 H   0  0  0  0  0  0  0  0  0  0  0  0
    4.0867   -1.7468    0.0000 H   0  0  0  0  0  0  0  0  0  0  0  0
    5.5611   -1.7663    0.0000 H   0  0  0  0  0  0  0  0  0  0  0  0
    6.6962   -1.0981    0.0000 H   0  0  0  0  0  0  0  0  0  0  0  0
    8.6119   -3.3410    0.0000 H   0  0  0  0  0  0  0  0  0  0  0  0
   10.1871   -2.0605    0.0000 H   0  0  0  0  0  0  0  0  0  0  0  0
    8.3859   -4.6290    0.0000 H   0  0  0  0  0  0  0  0  0  0  0  0
    8.3390   -6.6309    0.0000 H   0  0  0  0  0  0  0  0  0  0  0  0
    6.7032   -9.5091    0.0000 H   0  0  0  0  0  0  0  0  0  0  0  0
    9.0890   -7.9299    0.0000 H   0  0  0  0  0  0  0  0  0  0  0  0
    6.1917  -11.3043    0.0000 H   0  0  0  0  0  0  0  0  0  0  0  0
   10.6471  -13.5394    0.0000 H   0  0  0  0  0  0  0  0  0  0  0  0
   12.1025  -11.3043    0.0000 H   0  0  0  0  0  0  0  0  0  0  0  0
   10.7999   -8.4444    0.0000 H   0  0  0  0  0  0  0  0  0  0  0  0
    4.7375   -9.0228    0.0000 H   0  0  0  0  0  0  0  0  0  0  0  0
    3.4134   -9.2361    0.0000 H   0  0  0  0  0  0  0  0  0  0  0  0
    0.7982   -7.3463    0.0000 H   0  0  0  0  0  0  0  0  0  0  0  0
    2.2870   -9.9250    0.0000 H   0  0  0  0  0  0  0  0  0  0  0  0
   -1.2601   -7.0888    0.0000 H   0  0  0  0  0  0  0  0  0  0  0  0
   -3.4952   -8.5442    0.0000 H   0  0  0  0  0  0  0  0  0  0  0  0
   -0.8971  -13.0442    0.0000 H   0  0  0  0  0  0  0  0  0  0  0  0
    1.7010  -11.5442    0.0000 H   0  0  0  0  0  0  0  0  0  0  0  0
    0.7612   -6.6780    0.0000 H   0  0  0  0  0  0  0  0  0  0  0  0
    3.0447   -2.6250    0.0000 H   0  0  0  0  0  0  0  0  0  0  0  0
    0.3021   -3.5008    0.0000 H   0  0  0  0  0  0  0  0  0  0  0  0
    2.5790   -1.5560    0.0000 H   0  0  0  0  0  0  0  0  0  0  0  0
    2.9888   -0.1828    0.0000 H   0  0  0  0  0  0  0  0  0  0  0  0
    3.0000    2.5981    0.0000 H   0  0  0  0  0  0  0  0  0  0  0  0
    1.5000    5.1962    0.0000 H   0  0  0  0  0  0  0  0  0  0  0  0
   -1.5000    5.1962    0.0000 H   0  0  0  0  0  0  0  0  0  0  0  0
   -2.9888    2.4152    0.0000 H   0  0  0  0  0  0  0  0  0  0  0  0
   -3.0000    0.0000    0.0000 H   0  0  0  0  0  0  0  0  0  0  0  0
   -1.5000   -2.5981    0.0000 H   0  0  0  0  0  0  0  0  0  0  0  0
   -0.4910   -4.2337    0.0000 H   0  0  0  0  0  0  0  0  0  0  0  0
   -1.6471   -7.6471    0.0000 H   0  0  0  0  0  0  0  0  0  0  0  0
    0.4019   -8.1962    0.0000 H   0  0  0  0  0  0  0  0  0  0  0  0
   -1.0981   -5.5981    0.0000 H   0  0  0  0  0  0  0  0  0  0  0  0
   10.6359   -7.0623    0.0000 H   0  0  0  0  0  0  0  0  0  0  0  0
    8.1626  -10.0258    0.0000 H   0  0  0  0  0  0  0  0  0  0  0  0
    9.1101  -10.6750    0.0000 H   0  0  0  0  0  0  0  0  0  0  0  0
   10.4462   -7.9952    0.0000 H   0  0  0  0  0  0  0  0  0  0  0  0
   10.5818  -11.4861    0.0000 H   0  0  0  0  0  0  0  0  0  0  0  0
   11.7452   -8.7452    0.0000 H   0  0  0  0  0  0  0  0  0  0  0  0
   13.0442   -9.4952    0.0000 H   0  0  0  0  0  0  0  0  0  0  0  0
   11.5442  -12.0933    0.0000 H   0  0  0  0  0  0  0  0  0  0  0  0
   14.8923  -10.7942    0.0000 H   0  0  0  0  0  0  0  0  0  0  0  0
   12.2942  -15.2942    0.0000 H   0  0  0  0  0  0  0  0  0  0  0  0
   10.9952  -13.0442    0.0000 H   0  0  0  0  0  0  0  0  0  0  0  0
   14.8923  -15.2942    0.0000 H   0  0  0  0  0  0  0  0  0  0  0  0
    5.3315   -6.7362    0.0000 H   0  0  0  0  0  0  0  0  0  0  0  0
    3.0379   -7.3723    0.0000 H   0  0  0  0  0  0  0  0  0  0  0  0
    2.1814   -8.2101    0.0000 H   0  0  0  0  0  0  0  0  0  0  0  0
    2.3280  -10.0719    0.0000 H   0  0  0  0  0  0  0  0  0  0  0  0
    2.8047  -10.9580    0.0000 H   0  0  0  0  0  0  0  0  0  0  0  0
    4.2796  -11.8442    0.0000 H   0  0  0  0  0  0  0  0  0  0  0  0
    7.1311  -10.2189    0.0000 H   0  0  0  0  0  0  0  0  0  0  0  0
    8.3829  -11.2562    0.0000 H   0  0  0  0  0  0  0  0  0  0  0  0
    7.4829  -15.1215    0.0000 H   0  0  0  0  0  0  0  0  0  0  0  0
   10.3097  -13.3161    0.0000 H   0  0  0  0  0  0  0  0  0  0  0  0
    8.9747  -14.9647    0.0000 H   0  0  0  0  0  0  0  0  0  0  0  0
    9.2063  -12.0240    0.0000 H   0  0  0  0  0  0  0  0  0  0  0  0
    3.7325  -15.3136    0.0000 H   0  0  0  0  0  0  0  0  0  0  0  0
    6.1059  -16.3703    0.0000 H   0  0  0  0  0  0  0  0  0  0  0  0
  1  2  1  0
  2  3  1  0
  2  4  1  0
  4  5  1  0
  5  6  1  0
  6  7  1  0
  7  8  2  0
  7  9  1  0
  9 10  1  0
 10 11  1  0
 11 12  1  0
 12 13  1  0
 13 14  1  0
 14 15  1  0
 14 16  2  0
  9 17  1  0
 17 18  1  0
 18 19  2  0
 18 20  1  0
 20 21  1  0
 21 22  1  0
 22 23  2  0
 23 24  1  0
 24 25  2  0
 25 26  1  0
 25 27  1  0
 27 28  2  0
 20 29  1  0
 29 30  1  0
 30 31  2  0
 30 32  1  0
 32 33  1  0
 33 34  1  0
 32 35  1  0
 35 36  1  0
 36 37  2  0
 36 38  1  0
 38 39  1  0
 39 40  1  0
 40 41  2  0
 41 42  1  0
 42 43  2  0
 43 44  1  0
 44 45  2  0
 38 46  1  0
 46 47  1  0
 47 48  2  0
 47 49  1  0
 49 50  1  0
 50 51  1  0
 51 52  2  0
 52 53  1  0
 53 54  2  0
 54 55  1  0
 54 56  1  0
 56 57  2  0
 49 58  1  0
 58 59  1  0
 59 60  2  0
 59 61  1  0
 61 62  1  0
 62 63  1  0
 63 64  2  0
 64 65  1  0
 65 66  2  0
 66 67  1  0
 67 68  2  0
 68 69  1  0
 69 70  2  0
 70 71  1  0
 71 72  2  0
 61 73  1  0
 73 74  1  0
 74 75  1  0
 74 76  2  0
  5 77  1  0
 77 78  2  0
 77 79  1  0
 79 80  1  0
 80 81  1  0
 81 82  1  0
 82 83  1  0
 83 84  1  0
 84 85  1  0
 85 86  1  0
 85 87  2  3
 80 88  1  0
 88 89  2  0
 88 90  1  0
 90 91  1  0
 91 92  1  0
 92 93  1  0
 93 94  1  0
 94 95  1  0
 95 96  2  0
 95 97  1  0
 97 98  1  0
 98 99  1  0
 98100  1  0
100101  1  0
100102  2  0
 28 22  1  0
 45 40  1  0
 57 51  1  0
 72 63  1  0
 94 90  1  0
 70 65  1  0
  1103  1  0
  1104  1  0
  1105  1  0
  2106  1  0
  3107  1  0
  3108  1  0
  3109  1  0
  4110  1  0
  4111  1  0
  5112  1  6
  6113  1  0
  9114  1  1
 10115  1  0
 10116  1  0
 11117  1  0
 11118  1  0
 12119  1  0
 12120  1  0
 13121  1  0
 15122  1  0
 15123  1  0
 17124  1  0
 20125  1  1
 21126  1  0
 21127  1  0
 23128  1  0
 24129  1  0
 26130  1  0
 27131  1  0
 28132  1  0
 29133  1  0
 32134  1  1
 33135  1  0
 33136  1  0
 34137  1  0
 35138  1  0
 38139  1  6
 39140  1  0
 39141  1  0
 41142  1  0
 43143  1  0
 44144  1  0
 45145  1  0
 46146  1  0
 49147  1  6
 50148  1  0
 50149  1  0
 52150  1  0
 53151  1  0
 56152  1  0
 57153  1  0
 58154  1  0
 61155  1  1
 62156  1  0
 62157  1  0
 64158  1  0
 66159  1  0
 67160  1  0
 68161  1  0
 69162  1  0
 71163  1  0
 72164  1  0
 73165  1  0
 75166  1  0
 75167  1  0
 75168  1  0
 79169  1  0
 80170  1  6
 81171  1  0
 81172  1  0
 82173  1  0
 82174  1  0
 83175  1  0
 83176  1  0
 84177  1  0
 86178  1  0
 86179  1  0
 87180  1  0
 91181  1  0
 91182  1  0
 92183  1  0
 92184  1  0
 93185  1  0
 93186  1  0
 94187  1  1
 97188  1  0
 98189  1  1
 99190  1  0
 99191  1  0
 99192  1  0
101193  1  0
101194  1  0
M  END
$$$$
