
     RDKit          3D

 39 41  0  0  0  0  0  0  0  0999 V2000
   -0.3785    3.4812    1.4406 C   0  0  0  0  0  0  0  0  0  0  0  0
   -1.2421    2.3606    1.9358 C   0  0  0  0  0  0  0  0  0  0  0  0
   -1.4434    2.2342    3.1344 O   0  0  0  0  0  0  0  0  0  0  0  0
   -1.8737    1.3970    0.9645 C   0  0  0  0  0  0  0  0  0  0  0  0
   -1.2758   -0.0235    1.1040 C   0  0  1  0  0  0  0  0  0  0  0  0
   -2.0167   -1.1070    0.3288 C   0  0  0  0  0  0  0  0  0  0  0  0
   -2.8957   -0.8250   -0.7400 C   0  0  0  0  0  0  0  0  0  0  0  0
   -3.5317   -1.8633   -1.4276 C   0  0  0  0  0  0  0  0  0  0  0  0
   -3.3002   -3.1913   -1.0652 C   0  0  0  0  0  0  0  0  0  0  0  0
   -2.4298   -3.4856   -0.0147 C   0  0  0  0  0  0  0  0  0  0  0  0
   -1.7909   -2.4526    0.6765 C   0  0  0  0  0  0  0  0  0  0  0  0
    0.2171   -0.0363    0.7661 C   0  0  0  0  0  0  0  0  0  0  0  0
    0.6755    0.1606   -0.5569 C   0  0  0  0  0  0  0  0  0  0  0  0
   -0.2692    0.3517   -1.5710 O   0  0  0  0  0  0  0  0  0  0  0  0
    2.0673    0.1603   -0.8158 C   0  0  0  0  0  0  0  0  0  0  0  0
    2.6181    0.3428   -2.1036 C   0  0  0  0  0  0  0  0  0  0  0  0
    4.0040    0.3324   -2.2885 C   0  0  0  0  0  0  0  0  0  0  0  0
    4.8585    0.1414   -1.2029 C   0  0  0  0  0  0  0  0  0  0  0  0
    4.3319   -0.0408    0.0756 C   0  0  0  0  0  0  0  0  0  0  0  0
    2.9471   -0.0327    0.2757 C   0  0  0  0  0  0  0  0  0  0  0  0
    2.4738   -0.2071    1.5013 O   0  0  0  0  0  0  0  0  0  0  0  0
    1.1788   -0.2146    1.7840 C   0  0  0  0  0  0  0  0  0  0  0  0
    0.8257   -0.3818    2.9818 O   0  0  0  0  0  0  0  0  0  0  0  0
    0.4725    3.0671    0.8602 H   0  0  0  0  0  0  0  0  0  0  0  0
   -0.9754    4.1508    0.7869 H   0  0  0  0  0  0  0  0  0  0  0  0
    0.0229    4.0729    2.2909 H   0  0  0  0  0  0  0  0  0  0  0  0
   -1.7373    1.7795   -0.0687 H   0  0  0  0  0  0  0  0  0  0  0  0
   -2.9661    1.3647    1.1692 H   0  0  0  0  0  0  0  0  0  0  0  0
   -1.4203   -0.2965    2.1727 H   0  0  0  0  0  0  0  0  0  0  0  0
   -3.0930    0.1891   -1.0563 H   0  0  0  0  0  0  0  0  0  0  0  0
   -4.2036   -1.6371   -2.2455 H   0  0  0  0  0  0  0  0  0  0  0  0
   -3.7935   -3.9924   -1.6003 H   0  0  0  0  0  0  0  0  0  0  0  0
   -2.2479   -4.5156    0.2636 H   0  0  0  0  0  0  0  0  0  0  0  0
   -1.1144   -2.7011    1.4853 H   0  0  0  0  0  0  0  0  0  0  0  0
   -0.0509    0.5057   -2.5438 H   0  0  0  0  0  0  0  0  0  0  0  0
    2.0082    0.4933   -2.9793 H   0  0  0  0  0  0  0  0  0  0  0  0
    4.4171    0.4729   -3.2793 H   0  0  0  0  0  0  0  0  0  0  0  0
    5.9304    0.1343   -1.3527 H   0  0  0  0  0  0  0  0  0  0  0  0
    5.0011   -0.1885    0.9140 H   0  0  0  0  0  0  0  0  0  0  0  0
  1  2  1  0
  2  3  2  0
  2  4  1  0
  4  5  1  0
  5  6  1  0
  6  7  2  0
  7  8  1  0
  8  9  2  0
  9 10  1  0
 10 11  2  0
  5 12  1  0
 12 13  2  0
 13 14  1  0
 13 15  1  0
 15 16  2  0
 16 17  1  0
 17 18  2  0
 18 19  1  0
 19 20  2  0
 20 21  1  0
 21 22  1  0
 22 23  2  0
 11  6  1  0
 22 12  1  0
 20 15  1  0
  1 24  1  0
  1 25  1  0
  1 26  1  0
  4 27  1  0
  4 28  1  0
  5 29  1  1
  7 30  1  0
  8 31  1  0
  9 32  1  0
 10 33  1  0
 11 34  1  0
 14 35  1  0
 16 36  1  0
 17 37  1  0
 18 38  1  0
 19 39  1  0
M  END
$$$$
