
     RDKit          3D

 69 73  0  0  0  0  0  0  0  0999 V2000
    1.9691   -7.4503   -1.8224 C   0  0  0  0  0  0  0  0  0  0  0  0
    2.0790   -6.0514   -1.5801 O   0  0  0  0  0  0  0  0  0  0  0  0
    3.2375   -5.2887   -1.8056 C   0  0  0  0  0  0  0  0  0  0  0  0
    3.2198   -3.9019   -1.5272 C   0  0  0  0  0  0  0  0  0  0  0  0
    2.0311   -3.2375   -0.9417 C   0  0  0  0  0  0  0  0  0  0  0  0
    1.2127   -3.9141   -0.2625 O   0  0  0  0  0  0  0  0  0  0  0  0
    1.8787   -1.7585   -1.0566 C   0  0  0  0  0  0  0  0  0  0  0  0
    0.6271   -1.1189   -0.8790 C   0  0  0  0  0  0  0  0  0  0  0  0
   -0.5642   -1.8467   -0.7758 O   0  0  0  0  0  0  0  0  0  0  0  0
    0.5483    0.2866   -0.8243 C   0  0  0  0  0  0  0  0  0  0  0  0
    1.7109    1.0634   -1.0292 C   0  0  0  0  0  0  0  0  0  0  0  0
    1.6465    2.5782   -1.0698 C   0  0  0  0  0  0  0  0  0  0  0  0
    0.4296    3.1703   -0.3212 C   0  0  1  0  0  0  0  0  0  0  0  0
    0.5740    2.9607    1.0655 O   0  0  0  0  0  0  0  0  0  0  0  0
    0.3390    4.6962   -0.6293 C   0  0  0  0  0  0  0  0  0  0  0  0
   -0.7683    5.4562    0.1195 C   0  0  0  0  0  0  0  0  0  0  0  0
   -0.5813    5.3711    1.5050 O   0  0  0  0  0  0  0  0  0  0  0  0
   -0.8256    2.4296   -0.8224 C   0  0  0  0  0  0  0  0  0  0  0  0
   -0.7841    0.9260   -0.4714 C   0  0  2  0  0  0  0  0  0  0  0  0
   -1.0049    0.7111    0.9150 O   0  0  0  0  0  0  0  0  0  0  0  0
   -2.3599    0.8913    1.2939 C   0  0  1  0  0  0  0  0  0  0  0  0
   -2.7738   -0.3160    2.1549 C   0  0  0  0  0  0  0  0  0  0  0  0
   -4.2370   -0.1828    2.6405 C   0  0  2  0  0  0  0  0  0  0  0  0
   -5.1547   -0.9691    1.8091 N   0  0  0  0  0  0  0  0  0  0  0  0
   -4.6843    1.2997    2.7165 C   0  0  2  0  0  0  0  0  0  0  0  0
   -5.2905    1.7143    1.5154 O   0  0  0  0  0  0  0  0  0  0  0  0
   -3.4513    2.1898    3.0008 C   0  0  2  0  0  0  0  0  0  0  0  0
   -3.8653    3.6476    3.2074 C   0  0  0  0  0  0  0  0  0  0  0  0
   -2.4648    2.1400    1.9750 O   0  0  0  0  0  0  0  0  0  0  0  0
    2.9229    0.4324   -1.3656 C   0  0  0  0  0  0  0  0  0  0  0  0
    3.9860    1.2395   -1.7870 O   0  0  0  0  0  0  0  0  0  0  0  0
    3.0328   -0.9787   -1.3079 C   0  0  0  0  0  0  0  0  0  0  0  0
    4.3406   -1.6775   -1.4666 C   0  0  0  0  0  0  0  0  0  0  0  0
    5.4278   -1.0705   -1.2695 O   0  0  0  0  0  0  0  0  0  0  0  0
    4.3664   -3.1232   -1.7720 C   0  0  0  0  0  0  0  0  0  0  0  0
    5.5295   -3.7286   -2.2720 C   0  0  0  0  0  0  0  0  0  0  0  0
    5.5494   -5.0956   -2.5420 C   0  0  0  0  0  0  0  0  0  0  0  0
    4.4141   -5.8729   -2.3143 C   0  0  0  0  0  0  0  0  0  0  0  0
    0.9462   -7.7849   -1.5539 H   0  0  0  0  0  0  0  0  0  0  0  0
    2.1426   -7.6665   -2.8977 H   0  0  0  0  0  0  0  0  0  0  0  0
    2.6998   -8.0049   -1.1965 H   0  0  0  0  0  0  0  0  0  0  0  0
   -0.6669   -2.8040   -1.0825 H   0  0  0  0  0  0  0  0  0  0  0  0
    2.5774    3.0053   -0.6355 H   0  0  0  0  0  0  0  0  0  0  0  0
    1.6122    2.8836   -2.1393 H   0  0  0  0  0  0  0  0  0  0  0  0
    1.4008    3.4245    1.3616 H   0  0  0  0  0  0  0  0  0  0  0  0
    0.1793    4.8429   -1.7205 H   0  0  0  0  0  0  0  0  0  0  0  0
    1.3107    5.1773   -0.3801 H   0  0  0  0  0  0  0  0  0  0  0  0
   -0.7249    6.5249   -0.1872 H   0  0  0  0  0  0  0  0  0  0  0  0
   -1.7726    5.0737   -0.1598 H   0  0  0  0  0  0  0  0  0  0  0  0
   -1.3424    5.8571    1.9166 H   0  0  0  0  0  0  0  0  0  0  0  0
   -1.7465    2.8757   -0.4017 H   0  0  0  0  0  0  0  0  0  0  0  0
   -0.9027    2.5369   -1.9278 H   0  0  0  0  0  0  0  0  0  0  0  0
   -1.5641    0.4193   -1.0867 H   0  0  0  0  0  0  0  0  0  0  0  0
   -3.0533    0.9184    0.4200 H   0  0  0  0  0  0  0  0  0  0  0  0
   -2.0971   -0.3698    3.0366 H   0  0  0  0  0  0  0  0  0  0  0  0
   -2.6319   -1.2558    1.5772 H   0  0  0  0  0  0  0  0  0  0  0  0
   -4.2793   -0.5958    3.6743 H   0  0  0  0  0  0  0  0  0  0  0  0
   -4.9462   -1.9842    1.9527 H   0  0  0  0  0  0  0  0  0  0  0  0
   -4.9764   -0.7604    0.7994 H   0  0  0  0  0  0  0  0  0  0  0  0
   -5.4048    1.4096    3.5627 H   0  0  0  0  0  0  0  0  0  0  0  0
   -6.2547    1.4872    1.5823 H   0  0  0  0  0  0  0  0  0  0  0  0
   -2.9834    1.8507    3.9526 H   0  0  0  0  0  0  0  0  0  0  0  0
   -4.6082    3.7277    4.0294 H   0  0  0  0  0  0  0  0  0  0  0  0
   -2.9755    4.2545    3.4789 H   0  0  0  0  0  0  0  0  0  0  0  0
   -4.3042    4.0643    2.2759 H   0  0  0  0  0  0  0  0  0  0  0  0
    4.7715    0.8990   -2.3236 H   0  0  0  0  0  0  0  0  0  0  0  0
    6.4208   -3.1430   -2.4603 H   0  0  0  0  0  0  0  0  0  0  0  0
    6.4486   -5.5551   -2.9319 H   0  0  0  0  0  0  0  0  0  0  0  0
    4.4623   -6.9295   -2.5383 H   0  0  0  0  0  0  0  0  0  0  0  0
  1  2  1  0
  2  3  1  0
  3  4  2  0
  4  5  1  0
  5  6  2  0
  5  7  1  0
  7  8  2  0
  8  9  1  0
  8 10  1  0
 10 11  2  0
 11 12  1  0
 12 13  1  0
 13 14  1  1
 13 15  1  0
 15 16  1  0
 16 17  1  0
 13 18  1  0
 18 19  1  0
 19 20  1  0
 20 21  1  0
 21 22  1  0
 22 23  1  0
 23 24  1  0
 23 25  1  0
 25 26  1  0
 25 27  1  0
 27 28  1  0
 27 29  1  0
 11 30  1  0
 30 31  1  0
 30 32  2  0
 32 33  1  0
 33 34  2  0
 33 35  1  0
 35 36  2  0
 36 37  1  0
 37 38  2  0
 38  3  1  0
 35  4  1  0
 32  7  1  0
 19 10  1  0
 29 21  1  0
  1 39  1  0
  1 40  1  0
  1 41  1  0
  9 42  1  0
 12 43  1  0
 12 44  1  0
 14 45  1  0
 15 46  1  0
 15 47  1  0
 16 48  1  0
 16 49  1  0
 17 50  1  0
 18 51  1  0
 18 52  1  0
 19 53  1  6
 21 54  1  6
 22 55  1  0
 22 56  1  0
 23 57  1  1
 24 58  1  0
 24 59  1  0
 25 60  1  1
 26 61  1  0
 27 62  1  1
 28 63  1  0
 28 64  1  0
 28 65  1  0
 31 66  1  0
 36 67  1  0
 37 68  1  0
 38 69  1  0
M  END
$$$$
