
     RDKit          3D

 50 55  0  0  0  0  0  0  0  0999 V2000
   -5.2081   -1.1618   -1.0275 C   0  0  0  0  0  0  0  0  0  0  0  0
   -3.8919   -1.4337   -0.2985 C   0  0  0  0  0  0  0  0  0  0  0  0
   -3.1276   -0.1284    0.0278 C   0  0  1  0  0  0  0  0  0  0  0  0
   -2.0077   -0.3596    1.0885 C   0  0  2  0  0  0  0  0  0  0  0  0
   -1.3888    1.0347    1.3089 C   0  0  0  0  0  0  0  0  0  0  0  0
   -0.5012    1.3622    0.0626 C   0  0  1  0  0  0  0  0  0  0  0  0
    0.9874    1.0419    0.4733 C   0  0  2  0  0  0  0  0  0  0  0  0
    2.0805    1.7351   -0.2149 N   0  0  0  0  0  0  0  0  0  0  0  0
    2.2081    3.1863   -0.3349 C   0  0  0  0  0  0  0  0  0  0  0  0
    3.2026    0.8546   -0.0602 C   0  0  0  0  0  0  0  0  0  0  0  0
    4.5481    1.1671   -0.2767 C   0  0  0  0  0  0  0  0  0  0  0  0
    5.5109    0.1680   -0.0605 C   0  0  0  0  0  0  0  0  0  0  0  0
    5.1209   -1.1215    0.3501 C   0  0  0  0  0  0  0  0  0  0  0  0
    3.7648   -1.4234    0.5523 C   0  0  0  0  0  0  0  0  0  0  0  0
    2.8250   -0.4047    0.3779 C   0  0  0  0  0  0  0  0  0  0  0  0
    1.3334   -0.4656    0.3254 C   0  0  2  0  0  0  0  0  0  0  0  0
    0.9186   -0.9519   -1.0497 C   0  0  0  0  0  0  0  0  0  0  0  0
   -0.5710   -0.8778   -0.9314 C   0  0  1  0  0  0  0  0  0  0  0  0
   -0.9142   -1.3427    0.5194 C   0  0  0  0  0  0  0  0  0  0  0  0
    0.4602   -1.3115    1.2757 C   0  0  1  0  0  0  0  0  0  0  0  0
    0.9803   -2.6108    1.3856 O   0  0  0  0  0  0  0  0  0  0  0  0
   -0.9741    0.5421   -1.1167 N   0  0  0  0  0  0  0  0  0  0  0  0
   -2.4620    0.5344   -1.2411 C   0  0  2  0  0  0  0  0  0  0  0  0
   -2.9527    1.8290   -1.4984 O   0  0  0  0  0  0  0  0  0  0  0  0
   -5.0259   -0.6511   -1.9958 H   0  0  0  0  0  0  0  0  0  0  0  0
   -5.7246   -2.1237   -1.2297 H   0  0  0  0  0  0  0  0  0  0  0  0
   -5.8732   -0.5301   -0.4012 H   0  0  0  0  0  0  0  0  0  0  0  0
   -4.1294   -1.9678    0.6473 H   0  0  0  0  0  0  0  0  0  0  0  0
   -3.2705   -2.1110   -0.9215 H   0  0  0  0  0  0  0  0  0  0  0  0
   -3.8730    0.5721    0.4698 H   0  0  0  0  0  0  0  0  0  0  0  0
   -2.4334   -0.7477    2.0396 H   0  0  0  0  0  0  0  0  0  0  0  0
   -2.1776    1.8083    1.4320 H   0  0  0  0  0  0  0  0  0  0  0  0
   -0.8522    1.0604    2.2798 H   0  0  0  0  0  0  0  0  0  0  0  0
   -0.5970    2.4406   -0.1741 H   0  0  0  0  0  0  0  0  0  0  0  0
    1.1231    1.3217    1.5450 H   0  0  0  0  0  0  0  0  0  0  0  0
    1.2548    3.6945   -0.0904 H   0  0  0  0  0  0  0  0  0  0  0  0
    2.9835    3.5591    0.3670 H   0  0  0  0  0  0  0  0  0  0  0  0
    2.4979    3.4460   -1.3740 H   0  0  0  0  0  0  0  0  0  0  0  0
    4.8481    2.1523   -0.6081 H   0  0  0  0  0  0  0  0  0  0  0  0
    6.5583    0.3870   -0.2223 H   0  0  0  0  0  0  0  0  0  0  0  0
    5.8695   -1.8903    0.4911 H   0  0  0  0  0  0  0  0  0  0  0  0
    3.4638   -2.4266    0.8189 H   0  0  0  0  0  0  0  0  0  0  0  0
    1.2466   -2.0027   -1.2213 H   0  0  0  0  0  0  0  0  0  0  0  0
    1.2978   -0.3148   -1.8813 H   0  0  0  0  0  0  0  0  0  0  0  0
   -1.0263   -1.5412   -1.7021 H   0  0  0  0  0  0  0  0  0  0  0  0
   -1.3185   -2.3788    0.5032 H   0  0  0  0  0  0  0  0  0  0  0  0
    0.3922   -0.8562    2.2893 H   0  0  0  0  0  0  0  0  0  0  0  0
    0.4678   -3.0591    2.1079 H   0  0  0  0  0  0  0  0  0  0  0  0
   -2.7236   -0.0588   -2.1452 H   0  0  0  0  0  0  0  0  0  0  0  0
   -2.9197    2.3556   -0.6611 H   0  0  0  0  0  0  0  0  0  0  0  0
  1  2  1  0
  2  3  1  0
  3  4  1  0
  4  5  1  0
  5  6  1  0
  6  7  1  0
  7  8  1  0
  8  9  1  0
  8 10  1  0
 10 11  2  0
 11 12  1  0
 12 13  2  0
 13 14  1  0
 14 15  2  0
 16 15  1  1
 16 17  1  0
 17 18  1  0
 18 19  1  0
 19 20  1  0
 20 21  1  0
 18 22  1  0
 22 23  1  0
 23 24  1  0
 23  3  1  0
 19  4  1  0
 22  6  1  0
 16  7  1  0
 20 16  1  0
 15 10  1  0
  1 25  1  0
  1 26  1  0
  1 27  1  0
  2 28  1  0
  2 29  1  0
  3 30  1  1
  4 31  1  1
  5 32  1  0
  5 33  1  0
  6 34  1  6
  7 35  1  1
  9 36  1  0
  9 37  1  0
  9 38  1  0
 11 39  1  0
 12 40  1  0
 13 41  1  0
 14 42  1  0
 17 43  1  0
 17 44  1  0
 18 45  1  6
 19 46  1  0
 20 47  1  1
 21 48  1  0
 23 49  1  6
 24 50  1  0
M  END
$$$$
