
     RDKit          3D

 48 50  0  0  0  0  0  0  0  0999 V2000
   -0.7521   -0.9281   -0.4726 C   0  0  1  0  0  0  0  0  0  0  0  0
   -1.2541    0.4690   -0.8873 C   0  0  0  0  0  0  0  0  0  0  0  0
   -2.7554    0.5667   -0.7890 C   0  0  0  0  0  0  0  0  0  0  0  0
   -3.5531    0.4379   -1.9354 C   0  0  0  0  0  0  0  0  0  0  0  0
   -4.9440    0.5016   -1.8355 C   0  0  0  0  0  0  0  0  0  0  0  0
   -5.5553    0.6889   -0.5888 C   0  0  0  0  0  0  0  0  0  0  0  0
   -6.9442    0.7520   -0.4902 O   0  0  0  0  0  0  0  0  0  0  0  0
   -4.7721    0.8123    0.5679 C   0  0  0  0  0  0  0  0  0  0  0  0
   -5.4210    0.9945    1.7992 O   0  0  0  0  0  0  0  0  0  0  0  0
   -4.7534    1.1296    3.0497 C   0  0  0  0  0  0  0  0  0  0  0  0
   -3.3686    0.7485    0.4611 C   0  0  0  0  0  0  0  0  0  0  0  0
   -1.1866   -2.0446   -1.4508 C   0  0  0  0  0  0  0  0  0  0  0  0
   -0.0724   -2.9101   -1.5543 O   0  0  0  0  0  0  0  0  0  0  0  0
    1.0564   -2.3344   -1.0164 C   0  0  0  0  0  0  0  0  0  0  0  0
    2.1918   -2.8733   -1.0907 O   0  0  0  0  0  0  0  0  0  0  0  0
    0.7950   -0.9986   -0.4214 C   0  0  2  0  0  0  0  0  0  0  0  0
    1.3293   -0.8656    1.0198 C   0  0  0  0  0  0  0  0  0  0  0  0
    2.8311   -0.7306    1.0543 C   0  0  0  0  0  0  0  0  0  0  0  0
    3.6337   -1.8079    1.4578 C   0  0  0  0  0  0  0  0  0  0  0  0
    5.0239   -1.6820    1.4747 C   0  0  0  0  0  0  0  0  0  0  0  0
    5.6295   -0.4793    1.0879 C   0  0  0  0  0  0  0  0  0  0  0  0
    7.0178   -0.3551    1.1044 O   0  0  0  0  0  0  0  0  0  0  0  0
    4.8414    0.6068    0.6809 C   0  0  0  0  0  0  0  0  0  0  0  0
    5.4846    1.7945    0.2988 O   0  0  0  0  0  0  0  0  0  0  0  0
    4.8116    2.9704   -0.1391 C   0  0  0  0  0  0  0  0  0  0  0  0
    3.4387    0.4747    0.6667 C   0  0  0  0  0  0  0  0  0  0  0  0
   -1.1683   -1.1788    0.5307 H   0  0  0  0  0  0  0  0  0  0  0  0
   -0.8008    1.2330   -0.2181 H   0  0  0  0  0  0  0  0  0  0  0  0
   -0.9149    0.7064   -1.9200 H   0  0  0  0  0  0  0  0  0  0  0  0
   -3.0990    0.2873   -2.9069 H   0  0  0  0  0  0  0  0  0  0  0  0
   -5.5478    0.4029   -2.7286 H   0  0  0  0  0  0  0  0  0  0  0  0
   -7.5384    0.6658   -1.3066 H   0  0  0  0  0  0  0  0  0  0  0  0
   -4.0925    2.0219    3.0353 H   0  0  0  0  0  0  0  0  0  0  0  0
   -4.1594    0.2166    3.2660 H   0  0  0  0  0  0  0  0  0  0  0  0
   -5.5087    1.2600    3.8515 H   0  0  0  0  0  0  0  0  0  0  0  0
   -2.7463    0.8358    1.3419 H   0  0  0  0  0  0  0  0  0  0  0  0
   -1.4137   -1.6380   -2.4598 H   0  0  0  0  0  0  0  0  0  0  0  0
   -2.0694   -2.5989   -1.0667 H   0  0  0  0  0  0  0  0  0  0  0  0
    1.2467   -0.2241   -1.0810 H   0  0  0  0  0  0  0  0  0  0  0  0
    0.9993   -1.7353    1.6310 H   0  0  0  0  0  0  0  0  0  0  0  0
    0.8869    0.0408    1.4885 H   0  0  0  0  0  0  0  0  0  0  0  0
    3.1839   -2.7470    1.7556 H   0  0  0  0  0  0  0  0  0  0  0  0
    5.6314   -2.5217    1.7875 H   0  0  0  0  0  0  0  0  0  0  0  0
    7.6154   -1.1210    1.3929 H   0  0  0  0  0  0  0  0  0  0  0  0
    5.5631    3.7508   -0.3771 H   0  0  0  0  0  0  0  0  0  0  0  0
    4.1461    3.3511    0.6643 H   0  0  0  0  0  0  0  0  0  0  0  0
    4.2215    2.7542   -1.0547 H   0  0  0  0  0  0  0  0  0  0  0  0
    2.8125    1.3002    0.3552 H   0  0  0  0  0  0  0  0  0  0  0  0
  1  2  1  0
  2  3  1  0
  3  4  2  0
  4  5  1  0
  5  6  2  0
  6  7  1  0
  6  8  1  0
  8  9  1  0
  9 10  1  0
  8 11  2  0
  1 12  1  0
 12 13  1  0
 13 14  1  0
 14 15  2  0
 14 16  1  0
 16 17  1  0
 17 18  1  0
 18 19  2  0
 19 20  1  0
 20 21  2  0
 21 22  1  0
 21 23  1  0
 23 24  1  0
 24 25  1  0
 23 26  2  0
 16  1  1  0
 26 18  1  0
 11  3  1  0
  1 27  1  1
  2 28  1  0
  2 29  1  0
  4 30  1  0
  5 31  1  0
  7 32  1  0
 10 33  1  0
 10 34  1  0
 10 35  1  0
 11 36  1  0
 12 37  1  0
 12 38  1  0
 16 39  1  6
 17 40  1  0
 17 41  1  0
 19 42  1  0
 20 43  1  0
 22 44  1  0
 25 45  1  0
 25 46  1  0
 25 47  1  0
 26 48  1  0
M  END
$$$$
