
     RDKit          3D

 20 21  0  0  0  0  0  0  0  0999 V2000
    4.5981    0.1047    0.9463 N   0  0  0  0  0  0  0  0  0  0  0  0
    3.1839    0.1325    0.7765 C   0  0  0  0  0  0  0  0  0  0  0  0
    2.5500   -0.5165   -0.2293 N   0  0  0  0  0  0  0  0  0  0  0  0
    1.2092   -0.3200   -0.1510 C   0  0  0  0  0  0  0  0  0  0  0  0
    0.7882    0.4742    0.9032 C   0  0  0  0  0  0  0  0  0  0  0  0
    2.1224    0.9691    1.7958 S   0  0  0  0  0  0  0  0  0  0  0  0
   -0.5553    0.7674    1.1169 C   0  0  0  0  0  0  0  0  0  0  0  0
   -1.5107    0.2377    0.2313 C   0  0  0  0  0  0  0  0  0  0  0  0
   -2.8619    0.5428    0.4606 O   0  0  0  0  0  0  0  0  0  0  0  0
   -3.9549    0.0910   -0.3358 C   0  0  0  0  0  0  0  0  0  0  0  0
   -4.0130   -1.2912   -0.3257 F   0  0  0  0  0  0  0  0  0  0  0  0
   -3.8198    0.5483   -1.6344 F   0  0  0  0  0  0  0  0  0  0  0  0
   -5.1301    0.5898    0.1918 F   0  0  0  0  0  0  0  0  0  0  0  0
   -1.0829   -0.5770   -0.8506 C   0  0  0  0  0  0  0  0  0  0  0  0
    0.2812   -0.8564   -1.0420 C   0  0  0  0  0  0  0  0  0  0  0  0
    5.1979   -0.4315    0.2811 H   0  0  0  0  0  0  0  0  0  0  0  0
    5.0445    0.6202    1.7367 H   0  0  0  0  0  0  0  0  0  0  0  0
   -0.8571    1.3910    1.9488 H   0  0  0  0  0  0  0  0  0  0  0  0
   -1.7932   -0.9981   -1.5474 H   0  0  0  0  0  0  0  0  0  0  0  0
    0.6034   -1.4778   -1.8679 H   0  0  0  0  0  0  0  0  0  0  0  0
  1  2  1  0
  2  3  2  0
  3  4  1  0
  4  5  2  0
  5  6  1  0
  5  7  1  0
  7  8  2  0
  8  9  1  0
  9 10  1  0
 10 11  1  0
 10 12  1  0
 10 13  1  0
  8 14  1  0
 14 15  2  0
  6  2  1  0
 15  4  1  0
  1 16  1  0
  1 17  1  0
  7 18  1  0
 14 19  1  0
 15 20  1  0
M  END
$$$$
