
     RDKit          3D

126129  0  0  0  0  0  0  0  0999 V2000
   -6.1968    3.8077   -0.5730 C   0  0  0  0  0  0  0  0  0  0  0  0
   -7.3808    3.2022   -0.7220 C   0  0  0  0  0  0  0  0  0  0  0  0
   -7.5835    1.7391   -0.4654 C   0  0  2  0  0  0  0  0  0  0  0  0
   -8.9484    1.3993   -0.5682 O   0  0  0  0  0  0  0  0  0  0  0  0
   -8.3921    1.3782    0.7251 C   0  0  1  0  0  0  0  0  0  0  0  0
   -8.2385   -0.0581    1.2404 C   0  0  0  0  0  0  0  0  0  0  0  0
   -7.3727   -0.0969    2.5174 C   0  0  1  0  0  0  0  0  0  0  0  0
   -8.2236    0.1596    3.7620 C   0  0  0  0  0  0  0  0  0  0  0  0
   -6.7401   -1.3720    2.6507 O   0  0  0  0  0  0  0  0  0  0  0  0
   -5.5770   -1.7748    1.9730 C   0  0  0  0  0  0  0  0  0  0  0  0
   -5.0586   -2.8788    2.2865 O   0  0  0  0  0  0  0  0  0  0  0  0
   -4.8760   -0.9042    0.9551 C   0  0  0  0  0  0  0  0  0  0  0  0
   -4.4749   -1.6690   -0.3304 C   0  0  1  0  0  0  0  0  0  0  0  0
   -5.6025   -2.4354   -0.7661 O   0  0  0  0  0  0  0  0  0  0  0  0
   -5.7199   -3.8235   -0.6216 C   0  0  0  0  0  0  0  0  0  0  0  0
   -6.9770   -4.4964   -1.0543 C   0  0  0  0  0  0  0  0  0  0  0  0
   -4.7616   -4.5156   -0.1830 O   0  0  0  0  0  0  0  0  0  0  0  0
   -4.0385   -0.7164   -1.4933 C   0  0  2  0  0  0  0  0  0  0  0  0
   -3.6845   -1.4902   -2.6345 O   0  0  0  0  0  0  0  0  0  0  0  0
   -4.7951   -1.8134   -3.4524 C   0  0  0  0  0  0  0  0  0  0  0  0
   -2.8031    0.1534   -1.1050 C   0  0  1  0  0  0  0  0  0  0  0  0
   -1.6520   -0.6865   -1.0838 O   0  0  0  0  0  0  0  0  0  0  0  0
   -0.9968   -0.6959    0.1739 C   0  0  2  0  0  0  0  0  0  0  0  0
   -0.2349    0.4972    0.3469 O   0  0  0  0  0  0  0  0  0  0  0  0
    1.1009    0.4284   -0.1352 C   0  0  2  0  0  0  0  0  0  0  0  0
    1.1681    0.3799   -1.6714 C   0  0  0  0  0  0  0  0  0  0  0  0
    1.9464   -0.6921    0.5445 C   0  0  1  0  0  0  0  0  0  0  0  0
    2.7783   -0.1261    1.5483 O   0  0  0  0  0  0  0  0  0  0  0  0
    4.0747    0.1395    1.0479 C   0  0  1  0  0  0  0  0  0  0  0  0
    4.8036    1.0823    2.0258 C   0  0  0  0  0  0  0  0  0  0  0  0
    6.3426    0.8879    1.9841 C   0  0  1  0  0  0  0  0  0  0  0  0
    7.0381    2.2157    2.3506 C   0  0  0  0  0  0  0  0  0  0  0  0
    6.6844   -0.0974    2.9346 O   0  0  0  0  0  0  0  0  0  0  0  0
    6.7526    0.4227    0.5619 C   0  0  1  0  0  0  0  0  0  0  0  0
    8.1696    0.2353    0.4968 O   0  0  0  0  0  0  0  0  0  0  0  0
    8.9266    0.3949   -0.6692 C   0  0  0  0  0  0  0  0  0  0  0  0
    8.3968    0.8136   -1.7344 O   0  0  0  0  0  0  0  0  0  0  0  0
   10.3966    0.1112   -0.6333 C   0  0  0  0  0  0  0  0  0  0  0  0
   11.2324    1.4074   -0.6200 C   0  0  0  0  0  0  0  0  0  0  0  0
   10.9824    2.2293    0.6534 C   0  0  0  0  0  0  0  0  0  0  0  0
   12.7238    1.0740   -0.7456 C   0  0  0  0  0  0  0  0  0  0  0  0
    6.0126   -0.9080    0.2175 C   0  0  2  0  0  0  0  0  0  0  0  0
    5.7817   -1.0881   -1.2876 C   0  0  0  0  0  0  0  0  0  0  0  0
    4.7886   -1.0794    0.9251 O   0  0  0  0  0  0  0  0  0  0  0  0
    1.0586   -1.7613    1.2090 C   0  0  2  0  0  0  0  0  0  0  0  0
    1.8799   -2.9698    1.5119 N   0  0  0  0  0  0  0  0  0  0  0  0
    1.4665   -3.6500    2.7498 C   0  0  0  0  0  0  0  0  0  0  0  0
    2.0179   -3.9364    0.4068 C   0  0  0  0  0  0  0  0  0  0  0  0
   -0.1847   -2.0114    0.3236 C   0  0  1  0  0  0  0  0  0  0  0  0
   -0.9994   -3.0369    0.8380 O   0  0  0  0  0  0  0  0  0  0  0  0
   -2.5204    1.3807   -2.0373 C   0  0  1  0  0  0  0  0  0  0  0  0
   -2.1063    1.0085   -3.4886 C   0  0  0  0  0  0  0  0  0  0  0  0
   -3.2423    0.8274   -4.4564 C   0  0  0  0  0  0  0  0  0  0  0  0
   -3.0050    0.5557   -5.6221 O   0  0  0  0  0  0  0  0  0  0  0  0
   -3.5980    2.5041   -1.9854 C   0  0  0  0  0  0  0  0  0  0  0  0
   -3.6437    3.2718   -0.6298 C   0  0  1  0  0  0  0  0  0  0  0  0
   -3.2361    4.7428   -0.7944 C   0  0  0  0  0  0  0  0  0  0  0  0
   -5.0080    3.1492    0.0100 C   0  0  0  0  0  0  0  0  0  0  0  0
   -5.1335    2.4591    1.0565 O   0  0  0  0  0  0  0  0  0  0  0  0
   -6.1043    4.8306   -0.9129 H   0  0  0  0  0  0  0  0  0  0  0  0
   -8.2043    3.7747   -1.1327 H   0  0  0  0  0  0  0  0  0  0  0  0
   -6.9563    0.9894   -0.9897 H   0  0  0  0  0  0  0  0  0  0  0  0
   -8.8173    2.1803    1.3654 H   0  0  0  0  0  0  0  0  0  0  0  0
   -7.7889   -0.7079    0.4577 H   0  0  0  0  0  0  0  0  0  0  0  0
   -9.2479   -0.4776    1.4427 H   0  0  0  0  0  0  0  0  0  0  0  0
   -6.5936    0.6963    2.4915 H   0  0  0  0  0  0  0  0  0  0  0  0
   -8.9975   -0.6296    3.8745 H   0  0  0  0  0  0  0  0  0  0  0  0
   -7.5773    0.1516    4.6652 H   0  0  0  0  0  0  0  0  0  0  0  0
   -8.7204    1.1507    3.6954 H   0  0  0  0  0  0  0  0  0  0  0  0
   -5.5134   -0.0557    0.6578 H   0  0  0  0  0  0  0  0  0  0  0  0
   -3.9847   -0.4931    1.4654 H   0  0  0  0  0  0  0  0  0  0  0  0
   -3.6175   -2.3368   -0.0939 H   0  0  0  0  0  0  0  0  0  0  0  0
   -7.8269   -3.7850   -0.9900 H   0  0  0  0  0  0  0  0  0  0  0  0
   -7.1889   -5.3681   -0.3999 H   0  0  0  0  0  0  0  0  0  0  0  0
   -6.8689   -4.8415   -2.1034 H   0  0  0  0  0  0  0  0  0  0  0  0
   -4.8832   -0.0269   -1.6968 H   0  0  0  0  0  0  0  0  0  0  0  0
   -5.1646   -2.8286   -3.2064 H   0  0  0  0  0  0  0  0  0  0  0  0
   -5.6334   -1.0835   -3.4063 H   0  0  0  0  0  0  0  0  0  0  0  0
   -4.4530   -1.8487   -4.5067 H   0  0  0  0  0  0  0  0  0  0  0  0
   -3.0149    0.6126   -0.1205 H   0  0  0  0  0  0  0  0  0  0  0  0
   -1.7357   -0.7083    1.0040 H   0  0  0  0  0  0  0  0  0  0  0  0
    1.5678    1.4014    0.1336 H   0  0  0  0  0  0  0  0  0  0  0  0
    2.2239    0.4718   -2.0047 H   0  0  0  0  0  0  0  0  0  0  0  0
    0.6036    1.2300   -2.1039 H   0  0  0  0  0  0  0  0  0  0  0  0
    0.7612   -0.5691   -2.0728 H   0  0  0  0  0  0  0  0  0  0  0  0
    2.5418   -1.2091   -0.2454 H   0  0  0  0  0  0  0  0  0  0  0  0
    4.0016    0.6635    0.0629 H   0  0  0  0  0  0  0  0  0  0  0  0
    4.5269    2.1271    1.7595 H   0  0  0  0  0  0  0  0  0  0  0  0
    4.4412    0.9099    3.0640 H   0  0  0  0  0  0  0  0  0  0  0  0
    6.8052    3.0026    1.6012 H   0  0  0  0  0  0  0  0  0  0  0  0
    6.6970    2.5625    3.3496 H   0  0  0  0  0  0  0  0  0  0  0  0
    8.1401    2.0857    2.3898 H   0  0  0  0  0  0  0  0  0  0  0  0
    7.6718   -0.2013    2.9351 H   0  0  0  0  0  0  0  0  0  0  0  0
    6.4489    1.2241   -0.1511 H   0  0  0  0  0  0  0  0  0  0  0  0
   10.6322   -0.5040    0.2628 H   0  0  0  0  0  0  0  0  0  0  0  0
   10.6555   -0.4920   -1.5307 H   0  0  0  0  0  0  0  0  0  0  0  0
   10.9489    2.0281   -1.4993 H   0  0  0  0  0  0  0  0  0  0  0  0
    9.9268    2.5703    0.6918 H   0  0  0  0  0  0  0  0  0  0  0  0
   11.6277    3.1335    0.6605 H   0  0  0  0  0  0  0  0  0  0  0  0
   11.2008    1.6255    1.5603 H   0  0  0  0  0  0  0  0  0  0  0  0
   13.0609    0.4550    0.1137 H   0  0  0  0  0  0  0  0  0  0  0  0
   12.9145    0.5156   -1.6869 H   0  0  0  0  0  0  0  0  0  0  0  0
   13.3255    2.0076   -0.7734 H   0  0  0  0  0  0  0  0  0  0  0  0
    6.6717   -1.7443    0.5387 H   0  0  0  0  0  0  0  0  0  0  0  0
    6.7499   -1.2152   -1.8136 H   0  0  0  0  0  0  0  0  0  0  0  0
    5.2469   -0.2168   -1.7196 H   0  0  0  0  0  0  0  0  0  0  0  0
    5.1732   -2.0001   -1.4662 H   0  0  0  0  0  0  0  0  0  0  0  0
    0.6895   -1.3157    2.1633 H   0  0  0  0  0  0  0  0  0  0  0  0
    0.4721   -4.1298    2.6384 H   0  0  0  0  0  0  0  0  0  0  0  0
    2.2079   -4.4337    3.0162 H   0  0  0  0  0  0  0  0  0  0  0  0
    1.4379   -2.9328    3.5978 H   0  0  0  0  0  0  0  0  0  0  0  0
    2.3079   -3.4293   -0.5358 H   0  0  0  0  0  0  0  0  0  0  0  0
    2.8259   -4.6609    0.6442 H   0  0  0  0  0  0  0  0  0  0  0  0
    1.0767   -4.5037    0.2425 H   0  0  0  0  0  0  0  0  0  0  0  0
    0.1520   -2.3314   -0.6853 H   0  0  0  0  0  0  0  0  0  0  0  0
   -1.2759   -2.7755    1.7551 H   0  0  0  0  0  0  0  0  0  0  0  0
   -1.6060    1.8494   -1.6116 H   0  0  0  0  0  0  0  0  0  0  0  0
   -1.4851    0.0881   -3.4883 H   0  0  0  0  0  0  0  0  0  0  0  0
   -1.4633    1.8242   -3.8866 H   0  0  0  0  0  0  0  0  0  0  0  0
   -4.2745    0.9308   -4.1468 H   0  0  0  0  0  0  0  0  0  0  0  0
   -3.3836    3.2234   -2.8070 H   0  0  0  0  0  0  0  0  0  0  0  0
   -4.5963    2.0897   -2.2295 H   0  0  0  0  0  0  0  0  0  0  0  0
   -2.9023    2.8412    0.0782 H   0  0  0  0  0  0  0  0  0  0  0  0
   -3.8744    5.2564   -1.5439 H   0  0  0  0  0  0  0  0  0  0  0  0
   -2.1804    4.8028   -1.1357 H   0  0  0  0  0  0  0  0  0  0  0  0
   -3.3180    5.2758    0.1772 H   0  0  0  0  0  0  0  0  0  0  0  0
  1  2  2  0
  2  3  1  0
  3  4  1  0
  4  5  1  0
  5  6  1  0
  6  7  1  0
  7  8  1  0
  7  9  1  0
  9 10  1  0
 10 11  2  0
 10 12  1  0
 12 13  1  0
 13 14  1  0
 14 15  1  0
 15 16  1  0
 15 17  2  0
 13 18  1  0
 18 19  1  0
 19 20  1  0
 18 21  1  0
 21 22  1  0
 22 23  1  0
 23 24  1  0
 24 25  1  0
 25 26  1  0
 25 27  1  0
 27 28  1  0
 28 29  1  0
 29 30  1  0
 30 31  1  0
 31 32  1  0
 31 33  1  1
 31 34  1  0
 34 35  1  0
 35 36  1  0
 36 37  2  0
 36 38  1  0
 38 39  1  0
 39 40  1  0
 39 41  1  0
 34 42  1  0
 42 43  1  0
 42 44  1  0
 27 45  1  0
 45 46  1  0
 46 47  1  0
 46 48  1  0
 45 49  1  0
 49 50  1  0
 21 51  1  0
 51 52  1  0
 52 53  1  0
 53 54  2  0
 51 55  1  0
 55 56  1  0
 56 57  1  0
 56 58  1  0
 58 59  2  0
 58  1  1  0
  5  3  1  0
 49 23  1  0
 44 29  1  0
  1 60  1  0
  2 61  1  0
  3 62  1  6
  5 63  1  1
  6 64  1  0
  6 65  1  0
  7 66  1  6
  8 67  1  0
  8 68  1  0
  8 69  1  0
 12 70  1  0
 12 71  1  0
 13 72  1  1
 16 73  1  0
 16 74  1  0
 16 75  1  0
 18 76  1  6
 20 77  1  0
 20 78  1  0
 20 79  1  0
 21 80  1  1
 23 81  1  1
 25 82  1  1
 26 83  1  0
 26 84  1  0
 26 85  1  0
 27 86  1  6
 29 87  1  6
 30 88  1  0
 30 89  1  0
 32 90  1  0
 32 91  1  0
 32 92  1  0
 33 93  1  0
 34 94  1  6
 38 95  1  0
 38 96  1  0
 39 97  1  0
 40 98  1  0
 40 99  1  0
 40100  1  0
 41101  1  0
 41102  1  0
 41103  1  0
 42104  1  1
 43105  1  0
 43106  1  0
 43107  1  0
 45108  1  1
 47109  1  0
 47110  1  0
 47111  1  0
 48112  1  0
 48113  1  0
 48114  1  0
 49115  1  6
 50116  1  0
 51117  1  1
 52118  1  0
 52119  1  0
 53120  1  0
 55121  1  0
 55122  1  0
 56123  1  1
 57124  1  0
 57125  1  0
 57126  1  0
M  END
$$$$
