
     RDKit          3D

 36 36  0  0  0  0  0  0  0  0999 V2000
   -2.2702    1.2765   -1.0956 C   0  0  1  0  0  0  0  0  0  0  0  0
   -3.1230    1.5850   -2.1679 O   0  0  0  0  0  0  0  0  0  0  0  0
   -2.9577    0.2516   -0.1809 C   0  0  2  0  0  0  0  0  0  0  0  0
   -4.0616    0.8638    0.4376 O   0  0  0  0  0  0  0  0  0  0  0  0
   -1.9532   -0.2506    0.8867 C   0  0  1  0  0  0  0  0  0  0  0  0
   -2.5813   -1.3080    1.8087 C   0  0  0  0  0  0  0  0  0  0  0  0
   -3.0412   -2.4133    1.0767 O   0  0  0  0  0  0  0  0  0  0  0  0
   -0.8122   -0.8171    0.2639 O   0  0  0  0  0  0  0  0  0  0  0  0
   -0.0879    0.1715   -0.4524 C   0  0  1  0  0  0  0  0  0  0  0  0
    1.1488   -0.4134   -0.9864 N   0  0  0  0  0  0  0  0  0  0  0  0
    2.3090   -0.6963    0.3108 P   0  0  0  0  0  5  0  0  0  0  0  0
    1.6985   -1.6333    1.3306 O   0  0  0  0  0  0  0  0  0  0  0  0
    2.7045    0.7774    1.0751 O   0  0  0  0  0  0  0  0  0  0  0  0
    3.2481    1.6414    0.1082 C   0  0  0  0  0  0  0  0  0  0  0  0
    3.7069   -1.4123   -0.3569 O   0  0  0  0  0  0  0  0  0  0  0  0
    4.6062   -1.6845    0.6892 C   0  0  0  0  0  0  0  0  0  0  0  0
   -0.9404    0.7028   -1.6251 C   0  0  2  0  0  0  0  0  0  0  0  0
   -0.2343    1.6705   -2.3624 O   0  0  0  0  0  0  0  0  0  0  0  0
   -2.0652    2.1970   -0.4972 H   0  0  0  0  0  0  0  0  0  0  0  0
   -2.8110    2.4491   -2.5441 H   0  0  0  0  0  0  0  0  0  0  0  0
   -3.2878   -0.6091   -0.8122 H   0  0  0  0  0  0  0  0  0  0  0  0
   -4.7590    0.1660    0.5482 H   0  0  0  0  0  0  0  0  0  0  0  0
   -1.6533    0.6022    1.5408 H   0  0  0  0  0  0  0  0  0  0  0  0
   -1.8340   -1.6323    2.5689 H   0  0  0  0  0  0  0  0  0  0  0  0
   -3.4352   -0.8660    2.3641 H   0  0  0  0  0  0  0  0  0  0  0  0
   -2.2455   -2.9683    0.8665 H   0  0  0  0  0  0  0  0  0  0  0  0
    0.1723    1.0288    0.2138 H   0  0  0  0  0  0  0  0  0  0  0  0
    0.9284   -1.3423   -1.4148 H   0  0  0  0  0  0  0  0  0  0  0  0
    2.5040    1.8874   -0.6805 H   0  0  0  0  0  0  0  0  0  0  0  0
    4.1736    1.2201   -0.3422 H   0  0  0  0  0  0  0  0  0  0  0  0
    3.5271    2.5927    0.6055 H   0  0  0  0  0  0  0  0  0  0  0  0
    4.1890   -2.4370    1.3938 H   0  0  0  0  0  0  0  0  0  0  0  0
    4.8979   -0.7574    1.2301 H   0  0  0  0  0  0  0  0  0  0  0  0
    5.5303   -2.1165    0.2538 H   0  0  0  0  0  0  0  0  0  0  0  0
   -1.1702   -0.1470   -2.3062 H   0  0  0  0  0  0  0  0  0  0  0  0
   -0.0203    2.4209   -1.7482 H   0  0  0  0  0  0  0  0  0  0  0  0
  1  2  1  0
  1  3  1  0
  3  4  1  0
  3  5  1  0
  5  6  1  0
  6  7  1  0
  5  8  1  0
  8  9  1  0
  9 10  1  0
 10 11  1  0
 11 12  2  0
 11 13  1  0
 13 14  1  0
 11 15  1  0
 15 16  1  0
  9 17  1  0
 17 18  1  0
 17  1  1  0
  1 19  1  1
  2 20  1  0
  3 21  1  6
  4 22  1  0
  5 23  1  1
  6 24  1  0
  6 25  1  0
  7 26  1  0
  9 27  1  1
 10 28  1  0
 14 29  1  0
 14 30  1  0
 14 31  1  0
 16 32  1  0
 16 33  1  0
 16 34  1  0
 17 35  1  6
 18 36  1  0
M  END
$$$$
