
     RDKit          3D

 17 17  0  0  0  0  0  0  0  0999 V2000
    3.3885   -0.7619   -0.1744 N   0  0  0  0  0  0  0  0  0  0  0  0
    1.9895   -0.7992   -0.2894 N   0  0  0  0  0  0  0  0  0  0  0  0
    1.1568    0.1632    0.3778 C   0  0  0  0  0  0  0  0  0  0  0  0
    1.6811    0.9804    1.1832 O   0  0  0  0  0  0  0  0  0  0  0  0
   -0.3087    0.2034    0.1518 C   0  0  0  0  0  0  0  0  0  0  0  0
   -1.1539    0.7753    1.1182 C   0  0  0  0  0  0  0  0  0  0  0  0
   -2.5327    0.8152    0.8976 C   0  0  0  0  0  0  0  0  0  0  0  0
   -3.0548    0.3112   -0.2509 N   0  0  0  0  0  0  0  0  0  0  0  0
   -2.2647   -0.2386   -1.2098 C   0  0  0  0  0  0  0  0  0  0  0  0
   -0.8805   -0.3003   -1.0299 C   0  0  0  0  0  0  0  0  0  0  0  0
    3.7112    0.1700   -0.5216 H   0  0  0  0  0  0  0  0  0  0  0  0
    3.6283   -0.8286    0.8411 H   0  0  0  0  0  0  0  0  0  0  0  0
    1.5637   -1.5780   -0.8374 H   0  0  0  0  0  0  0  0  0  0  0  0
   -0.7541    1.1781    2.0406 H   0  0  0  0  0  0  0  0  0  0  0  0
   -3.1884    1.2480    1.6413 H   0  0  0  0  0  0  0  0  0  0  0  0
   -2.7108   -0.6230   -2.1174 H   0  0  0  0  0  0  0  0  0  0  0  0
   -0.2707   -0.7151   -1.8208 H   0  0  0  0  0  0  0  0  0  0  0  0
  1  2  1  0
  2  3  1  0
  3  4  2  0
  3  5  1  0
  5  6  2  0
  6  7  1  0
  7  8  2  0
  8  9  1  0
  9 10  2  0
 10  5  1  0
  1 11  1  0
  1 12  1  0
  2 13  1  0
  6 14  1  0
  7 15  1  0
  9 16  1  0
 10 17  1  0
M  END
$$$$
