
     RDKit          3D

 49 50  0  0  0  0  0  0  0  0999 V2000
    1.1310   -0.2791    1.2912 C   0  0  2  0  0  0  0  0  0  0  0  0
    1.1503    0.4013    2.6629 C   0  0  0  0  0  0  0  0  0  0  0  0
   -0.0980   -1.0900    1.1525 N   0  0  0  0  0  0  0  0  0  0  0  0
   -1.2364   -0.3167    0.6172 C   0  0  1  0  0  0  0  0  0  0  0  0
   -1.2187   -0.2887   -0.9366 C   0  0  0  0  0  0  0  0  0  0  0  0
   -1.9967    0.8930   -1.5401 C   0  0  0  0  0  0  0  0  0  0  0  0
   -3.4813    0.7919   -1.3021 C   0  0  0  0  0  0  0  0  0  0  0  0
   -4.1145    1.6421   -0.3794 C   0  0  0  0  0  0  0  0  0  0  0  0
   -5.4879    1.5274   -0.1437 C   0  0  0  0  0  0  0  0  0  0  0  0
   -6.2384    0.5670   -0.8272 C   0  0  0  0  0  0  0  0  0  0  0  0
   -5.6170   -0.2798   -1.7489 C   0  0  0  0  0  0  0  0  0  0  0  0
   -4.2437   -0.1689   -1.9876 C   0  0  0  0  0  0  0  0  0  0  0  0
   -2.5067   -0.9267    1.1401 C   0  0  0  0  0  0  0  0  0  0  0  0
   -3.2873   -0.2234    2.0525 O   0  0  0  0  0  0  0  0  0  0  0  0
   -2.8532   -2.0847    0.7817 O   0  0  0  0  0  0  0  0  0  0  0  0
    2.3636   -1.1514    1.1598 C   0  0  0  0  0  0  0  0  0  0  0  0
    2.4020   -2.2412    1.7950 O   0  0  0  0  0  0  0  0  0  0  0  0
    3.5068   -0.7546    0.3739 N   0  0  0  0  0  0  0  0  0  0  0  0
    4.7273   -1.5453    0.3346 C   0  0  0  0  0  0  0  0  0  0  0  0
    5.6708   -0.8104   -0.6086 C   0  0  0  0  0  0  0  0  0  0  0  0
    5.1088    0.6019   -0.7361 C   0  0  0  0  0  0  0  0  0  0  0  0
    3.6260    0.4890   -0.3795 C   0  0  1  0  0  0  0  0  0  0  0  0
    2.7762    0.4393   -1.6201 C   0  0  0  0  0  0  0  0  0  0  0  0
    2.0342    1.5559   -1.9919 O   0  0  0  0  0  0  0  0  0  0  0  0
    2.7531   -0.5973   -2.3375 O   0  0  0  0  0  0  0  0  0  0  0  0
    1.1522    0.5175    0.5209 H   0  0  0  0  0  0  0  0  0  0  0  0
    1.0941   -0.3560    3.4743 H   0  0  0  0  0  0  0  0  0  0  0  0
    2.0841    0.9917    2.7842 H   0  0  0  0  0  0  0  0  0  0  0  0
    0.2904    1.0948    2.7673 H   0  0  0  0  0  0  0  0  0  0  0  0
    0.0709   -1.9161    0.5289 H   0  0  0  0  0  0  0  0  0  0  0  0
   -1.1950    0.7303    0.9933 H   0  0  0  0  0  0  0  0  0  0  0  0
   -0.1692   -0.1946   -1.2864 H   0  0  0  0  0  0  0  0  0  0  0  0
   -1.5944   -1.2485   -1.3540 H   0  0  0  0  0  0  0  0  0  0  0  0
   -1.5945    1.8479   -1.1361 H   0  0  0  0  0  0  0  0  0  0  0  0
   -1.8153    0.9138   -2.6368 H   0  0  0  0  0  0  0  0  0  0  0  0
   -3.5443    2.3844    0.1651 H   0  0  0  0  0  0  0  0  0  0  0  0
   -5.9699    2.1811    0.5717 H   0  0  0  0  0  0  0  0  0  0  0  0
   -7.3011    0.4787   -0.6424 H   0  0  0  0  0  0  0  0  0  0  0  0
   -6.1991   -1.0235   -2.2775 H   0  0  0  0  0  0  0  0  0  0  0  0
   -3.7734   -0.8334   -2.7018 H   0  0  0  0  0  0  0  0  0  0  0  0
   -4.1454   -0.6200    2.4163 H   0  0  0  0  0  0  0  0  0  0  0  0
    5.1673   -1.6026    1.3540 H   0  0  0  0  0  0  0  0  0  0  0  0
    4.5140   -2.5686   -0.0436 H   0  0  0  0  0  0  0  0  0  0  0  0
    6.7109   -0.7990   -0.2164 H   0  0  0  0  0  0  0  0  0  0  0  0
    5.6609   -1.3035   -1.6056 H   0  0  0  0  0  0  0  0  0  0  0  0
    5.2838    1.0186   -1.7531 H   0  0  0  0  0  0  0  0  0  0  0  0
    5.6144    1.2601    0.0048 H   0  0  0  0  0  0  0  0  0  0  0  0
    3.3323    1.3542    0.2549 H   0  0  0  0  0  0  0  0  0  0  0  0
    1.4562    1.5421   -2.8237 H   0  0  0  0  0  0  0  0  0  0  0  0
  1  2  1  0
  1  3  1  0
  3  4  1  0
  4  5  1  0
  5  6  1  0
  6  7  1  0
  7  8  2  0
  8  9  1  0
  9 10  2  0
 10 11  1  0
 11 12  2  0
  4 13  1  0
 13 14  1  0
 13 15  2  0
  1 16  1  0
 16 17  2  0
 16 18  1  0
 18 19  1  0
 19 20  1  0
 20 21  1  0
 21 22  1  0
 22 23  1  0
 23 24  1  0
 23 25  2  0
 12  7  1  0
 22 18  1  0
  1 26  1  6
  2 27  1  0
  2 28  1  0
  2 29  1  0
  3 30  1  0
  4 31  1  1
  5 32  1  0
  5 33  1  0
  6 34  1  0
  6 35  1  0
  8 36  1  0
  9 37  1  0
 10 38  1  0
 11 39  1  0
 12 40  1  0
 14 41  1  0
 19 42  1  0
 19 43  1  0
 20 44  1  0
 20 45  1  0
 21 46  1  0
 21 47  1  0
 22 48  1  1
 24 49  1  0
M  END
$$$$
