
     RDKit          3D

 41 43  0  0  0  0  0  0  0  0999 V2000
   -2.2924   -0.4803    1.1339 C   0  0  1  0  0  0  0  0  0  0  0  0
   -2.4536   -1.7384    0.2649 C   0  0  0  0  0  0  0  0  0  0  0  0
   -3.0649   -1.2224   -1.0280 C   0  0  0  0  0  0  0  0  0  0  0  0
   -3.2008    0.2921   -0.8017 C   0  0  2  0  0  0  0  0  0  0  0  0
   -1.9297    1.0352   -1.2996 C   0  0  0  0  0  0  0  0  0  0  0  0
   -0.8715    1.2489   -0.1802 C   0  0  1  0  0  0  0  0  0  0  0  0
   -0.8882    0.1515    0.9268 C   0  0  0  0  0  0  0  0  0  0  0  0
    0.4253    1.3392   -0.7708 O   0  0  0  0  0  0  0  0  0  0  0  0
    1.5491    1.8286   -0.0962 C   0  0  0  0  0  0  0  0  0  0  0  0
    1.4452    2.3066    1.0671 O   0  0  0  0  0  0  0  0  0  0  0  0
    2.8960    1.7144   -0.7470 C   0  0  0  0  0  0  0  0  0  0  0  0
    3.7607    2.7193   -0.2817 O   0  0  0  0  0  0  0  0  0  0  0  0
    3.4779    0.3548   -0.4482 C   0  0  0  0  0  0  0  0  0  0  0  0
    4.0327    0.0732    0.8143 C   0  0  0  0  0  0  0  0  0  0  0  0
    4.5308   -1.2020    1.0983 C   0  0  0  0  0  0  0  0  0  0  0  0
    4.4701   -2.2092    0.1320 C   0  0  0  0  0  0  0  0  0  0  0  0
    3.9070   -1.9444   -1.1189 C   0  0  0  0  0  0  0  0  0  0  0  0
    3.4076   -0.6707   -1.4081 C   0  0  0  0  0  0  0  0  0  0  0  0
   -3.2906    0.4820    0.6513 N   0  0  0  0  0  0  0  0  0  0  0  0
   -4.6406    0.2066    1.1753 C   0  0  0  0  0  0  0  0  0  0  0  0
   -2.4356   -0.7262    2.2108 H   0  0  0  0  0  0  0  0  0  0  0  0
   -3.1524   -2.4493    0.7579 H   0  0  0  0  0  0  0  0  0  0  0  0
   -1.4971   -2.2726    0.0777 H   0  0  0  0  0  0  0  0  0  0  0  0
   -2.4384   -1.4848   -1.9077 H   0  0  0  0  0  0  0  0  0  0  0  0
   -4.0710   -1.6720   -1.1781 H   0  0  0  0  0  0  0  0  0  0  0  0
   -4.0967    0.6896   -1.3311 H   0  0  0  0  0  0  0  0  0  0  0  0
   -1.4694    0.5080   -2.1633 H   0  0  0  0  0  0  0  0  0  0  0  0
   -2.2320    2.0345   -1.6827 H   0  0  0  0  0  0  0  0  0  0  0  0
   -1.1130    2.2220    0.3061 H   0  0  0  0  0  0  0  0  0  0  0  0
   -0.5727    0.6215    1.8837 H   0  0  0  0  0  0  0  0  0  0  0  0
   -0.1254   -0.6261    0.7041 H   0  0  0  0  0  0  0  0  0  0  0  0
    2.7682    1.8300   -1.8488 H   0  0  0  0  0  0  0  0  0  0  0  0
    3.4569    3.5719   -0.6908 H   0  0  0  0  0  0  0  0  0  0  0  0
    4.0747    0.8389    1.5790 H   0  0  0  0  0  0  0  0  0  0  0  0
    4.9596   -1.4108    2.0700 H   0  0  0  0  0  0  0  0  0  0  0  0
    4.8544   -3.1963    0.3544 H   0  0  0  0  0  0  0  0  0  0  0  0
    3.8531   -2.7278   -1.8637 H   0  0  0  0  0  0  0  0  0  0  0  0
    2.9633   -0.4864   -2.3783 H   0  0  0  0  0  0  0  0  0  0  0  0
   -5.3624    0.9374    0.7527 H   0  0  0  0  0  0  0  0  0  0  0  0
   -4.9877   -0.8203    0.9320 H   0  0  0  0  0  0  0  0  0  0  0  0
   -4.6464    0.3334    2.2787 H   0  0  0  0  0  0  0  0  0  0  0  0
  1  2  1  0
  2  3  1  0
  3  4  1  0
  4  5  1  0
  5  6  1  0
  6  7  1  0
  6  8  1  0
  8  9  1  0
  9 10  2  0
  9 11  1  0
 11 12  1  0
 11 13  1  0
 13 14  2  0
 14 15  1  0
 15 16  2  0
 16 17  1  0
 17 18  2  0
  4 19  1  0
 19 20  1  0
  7  1  1  0
 18 13  1  0
 19  1  1  0
  1 21  1  1
  2 22  1  0
  2 23  1  0
  3 24  1  0
  3 25  1  0
  4 26  1  6
  5 27  1  0
  5 28  1  0
  6 29  1  1
  7 30  1  0
  7 31  1  0
 11 32  1  0
 12 33  1  0
 14 34  1  0
 15 35  1  0
 16 36  1  0
 17 37  1  0
 18 38  1  0
 20 39  1  0
 20 40  1  0
 20 41  1  0
M  END
$$$$
