
     RDKit          3D

 58 62  0  0  0  0  0  0  0  0999 V2000
   -3.6260    5.0332    0.1577 F   0  0  0  0  0  0  0  0  0  0  0  0
   -3.4769    3.6854    0.1440 C   0  0  0  0  0  0  0  0  0  0  0  0
   -4.5710    2.8684   -0.1439 C   0  0  0  0  0  0  0  0  0  0  0  0
   -4.4433    1.4600   -0.1708 C   0  0  0  0  0  0  0  0  0  0  0  0
   -3.1702    0.9110    0.1210 C   0  0  0  0  0  0  0  0  0  0  0  0
   -2.0680    1.7319    0.4246 C   0  0  0  0  0  0  0  0  0  0  0  0
   -2.2330    3.1242    0.4213 C   0  0  0  0  0  0  0  0  0  0  0  0
   -0.7394    1.1431    0.7238 C   0  0  0  0  0  0  0  0  0  0  0  0
    0.2947    1.8584    0.6182 O   0  0  0  0  0  0  0  0  0  0  0  0
   -0.6216   -0.2150    1.1805 N   0  0  0  0  0  0  0  0  0  0  0  0
    0.5892   -0.9850    1.0892 C   0  0  0  0  0  0  0  0  0  0  0  0
    0.8379   -2.0019    2.0455 C   0  0  0  0  0  0  0  0  0  0  0  0
    2.0050   -2.7839    1.9802 C   0  0  0  0  0  0  0  0  0  0  0  0
    2.8966   -2.5389    0.9394 C   0  0  0  0  0  0  0  0  0  0  0  0
    4.0686   -3.1559    0.7083 N   0  0  0  0  0  0  0  0  0  0  0  0
    4.5852   -2.5741   -0.3979 C   0  0  0  0  0  0  0  0  0  0  0  0
    3.7245   -1.5901   -0.8751 C   0  0  0  0  0  0  0  0  0  0  0  0
    3.9811   -0.6598   -2.0258 C   0  0  0  0  0  0  0  0  0  0  0  0
    4.4364    0.7253   -1.5475 C   0  0  0  0  0  0  0  0  0  0  0  0
    5.7451    0.6576   -0.8023 C   0  0  0  0  0  0  0  0  0  0  0  0
    6.9573    0.5881   -1.5039 C   0  0  0  0  0  0  0  0  0  0  0  0
    8.1569    0.4846   -0.7956 C   0  0  0  0  0  0  0  0  0  0  0  0
    8.1456    0.4433    0.5633 N   0  0  0  0  0  0  0  0  0  0  0  0
    6.9846    0.5001    1.2684 C   0  0  0  0  0  0  0  0  0  0  0  0
    5.7629    0.6054    0.5997 C   0  0  0  0  0  0  0  0  0  0  0  0
    2.6548   -1.5740   -0.0021 C   0  0  0  0  0  0  0  0  0  0  0  0
    1.5109   -0.7783    0.0354 C   0  0  0  0  0  0  0  0  0  0  0  0
   -5.5865    0.6027   -0.4827 N   0  0  0  0  0  0  0  0  0  0  0  0
   -6.9141    1.2173   -0.6987 C   0  0  0  0  0  0  0  0  0  0  0  0
   -8.0015    0.2113   -1.0855 C   0  0  0  0  0  0  0  0  0  0  0  0
   -7.8467   -0.9955   -0.3784 O   0  0  0  0  0  0  0  0  0  0  0  0
   -6.6845   -1.6363   -0.8463 C   0  0  0  0  0  0  0  0  0  0  0  0
   -5.4276   -0.8668   -0.4310 C   0  0  0  0  0  0  0  0  0  0  0  0
   -5.5127    3.3581   -0.3420 H   0  0  0  0  0  0  0  0  0  0  0  0
   -3.0184   -0.1565    0.1003 H   0  0  0  0  0  0  0  0  0  0  0  0
   -1.4012    3.7801    0.6472 H   0  0  0  0  0  0  0  0  0  0  0  0
   -1.4251   -0.6280    1.7057 H   0  0  0  0  0  0  0  0  0  0  0  0
    0.1307   -2.1767    2.8464 H   0  0  0  0  0  0  0  0  0  0  0  0
    2.2033   -3.5507    2.7178 H   0  0  0  0  0  0  0  0  0  0  0  0
    4.5034   -3.9178    1.2747 H   0  0  0  0  0  0  0  0  0  0  0  0
    5.5444   -2.8350   -0.8258 H   0  0  0  0  0  0  0  0  0  0  0  0
    3.0465   -0.5501   -2.6162 H   0  0  0  0  0  0  0  0  0  0  0  0
    4.7502   -1.0975   -2.6988 H   0  0  0  0  0  0  0  0  0  0  0  0
    3.6491    1.1807   -0.9075 H   0  0  0  0  0  0  0  0  0  0  0  0
    4.5517    1.3893   -2.4317 H   0  0  0  0  0  0  0  0  0  0  0  0
    6.9718    0.6098   -2.5865 H   0  0  0  0  0  0  0  0  0  0  0  0
    9.0976    0.4329   -1.3272 H   0  0  0  0  0  0  0  0  0  0  0  0
    7.0093    0.4595    2.3491 H   0  0  0  0  0  0  0  0  0  0  0  0
    4.8411    0.6373    1.1675 H   0  0  0  0  0  0  0  0  0  0  0  0
    1.3336   -0.0417   -0.7366 H   0  0  0  0  0  0  0  0  0  0  0  0
   -7.2261    1.7330    0.2358 H   0  0  0  0  0  0  0  0  0  0  0  0
   -6.8517    1.9660   -1.5177 H   0  0  0  0  0  0  0  0  0  0  0  0
   -8.9927    0.6431   -0.8310 H   0  0  0  0  0  0  0  0  0  0  0  0
   -8.0109    0.0461   -2.1885 H   0  0  0  0  0  0  0  0  0  0  0  0
   -6.6417   -2.6538   -0.4030 H   0  0  0  0  0  0  0  0  0  0  0  0
   -6.7097   -1.7824   -1.9517 H   0  0  0  0  0  0  0  0  0  0  0  0
   -4.6098   -1.1796   -1.1155 H   0  0  0  0  0  0  0  0  0  0  0  0
   -5.1597   -1.1617    0.6073 H   0  0  0  0  0  0  0  0  0  0  0  0
  1  2  1  0
  2  3  2  0
  3  4  1  0
  4  5  2  0
  5  6  1  0
  6  7  2  0
  6  8  1  0
  8  9  2  0
  8 10  1  0
 10 11  1  0
 11 12  2  0
 12 13  1  0
 13 14  2  0
 14 15  1  0
 15 16  1  0
 16 17  2  0
 17 18  1  0
 18 19  1  0
 19 20  1  0
 20 21  2  0
 21 22  1  0
 22 23  2  0
 23 24  1  0
 24 25  2  0
 17 26  1  0
 26 27  2  0
  4 28  1  0
 28 29  1  0
 29 30  1  0
 30 31  1  0
 31 32  1  0
 32 33  1  0
  7  2  1  0
 27 11  1  0
 33 28  1  0
 26 14  1  0
 25 20  1  0
  3 34  1  0
  5 35  1  0
  7 36  1  0
 10 37  1  0
 12 38  1  0
 13 39  1  0
 15 40  1  0
 16 41  1  0
 18 42  1  0
 18 43  1  0
 19 44  1  0
 19 45  1  0
 21 46  1  0
 22 47  1  0
 24 48  1  0
 25 49  1  0
 27 50  1  0
 29 51  1  0
 29 52  1  0
 30 53  1  0
 30 54  1  0
 32 55  1  0
 32 56  1  0
 33 57  1  0
 33 58  1  0
M  END
$$$$
