
     RDKit          3D

 61 60  0  0  0  0  0  0  0  0999 V2000
    7.3826   -1.9297   -2.0000 C   0  0  1  0  0  0  0  0  0  0  0  0
    8.6128   -2.4490   -1.3996 N   0  0  0  0  0  0  0  0  0  0  0  0
    7.0545   -0.5523   -1.4019 C   0  0  0  0  0  0  0  0  0  0  0  0
    5.4546    0.0988   -2.0101 S   0  0  0  0  0  0  0  0  0  0  0  0
    4.4446   -0.8825   -0.8933 C   0  0  0  0  0  0  0  0  0  0  0  0
    4.0104   -1.9616   -1.2645 O   0  0  0  0  0  0  0  0  0  0  0  0
    4.1297   -0.3764    0.4867 C   0  0  0  0  0  0  0  0  0  0  0  0
    2.6292   -0.1150    0.6768 C   0  0  0  0  0  0  0  0  0  0  0  0
    2.1399    1.0761   -0.1657 C   0  0  0  0  0  0  0  0  0  0  0  0
    0.6246    1.3046   -0.0443 C   0  0  0  0  0  0  0  0  0  0  0  0
    0.2291    1.9434    1.2983 C   0  0  0  0  0  0  0  0  0  0  0  0
   -1.2885    2.1510    1.4265 C   0  0  0  0  0  0  0  0  0  0  0  0
   -1.8137    3.2733    0.5158 C   0  0  0  0  0  0  0  0  0  0  0  0
   -3.2684    3.6644    0.8293 C   0  0  0  0  0  0  0  0  0  0  0  0
   -4.2857    2.5450    0.5230 C   0  0  0  0  0  0  0  0  0  0  0  0
   -4.7339    1.8046    1.7954 C   0  0  0  0  0  0  0  0  0  0  0  0
   -5.7050    0.6519    1.4956 C   0  0  0  0  0  0  0  0  0  0  0  0
   -4.9910   -0.5836    0.9257 C   0  0  0  0  0  0  0  0  0  0  0  0
   -5.9719   -1.7472    0.7394 C   0  0  0  0  0  0  0  0  0  0  0  0
   -5.2619   -2.9786    0.1651 C   0  0  0  0  0  0  0  0  0  0  0  0
   -6.2349   -4.1393   -0.0208 C   0  0  0  0  0  0  0  0  0  0  0  0
    7.5173   -1.8565   -3.4994 C   0  0  0  0  0  0  0  0  0  0  0  0
    8.4764   -1.0288   -4.0767 O   0  0  0  0  0  0  0  0  0  0  0  0
    6.7621   -2.5479   -4.2341 O   0  0  0  0  0  0  0  0  0  0  0  0
    6.5568   -2.6286   -1.7434 H   0  0  0  0  0  0  0  0  0  0  0  0
    9.4217   -1.8478   -1.6819 H   0  0  0  0  0  0  0  0  0  0  0  0
    8.7902   -3.4091   -1.7761 H   0  0  0  0  0  0  0  0  0  0  0  0
    7.8495    0.1744   -1.6748 H   0  0  0  0  0  0  0  0  0  0  0  0
    7.0356   -0.6173   -0.2923 H   0  0  0  0  0  0  0  0  0  0  0  0
    4.4628   -1.1371    1.2252 H   0  0  0  0  0  0  0  0  0  0  0  0
    4.6992    0.5562    0.6905 H   0  0  0  0  0  0  0  0  0  0  0  0
    2.4582    0.0968    1.7528 H   0  0  0  0  0  0  0  0  0  0  0  0
    2.0536   -1.0301    0.4153 H   0  0  0  0  0  0  0  0  0  0  0  0
    2.6864    1.9993    0.1273 H   0  0  0  0  0  0  0  0  0  0  0  0
    2.3671    0.8782   -1.2357 H   0  0  0  0  0  0  0  0  0  0  0  0
    0.3225    1.9821   -0.8705 H   0  0  0  0  0  0  0  0  0  0  0  0
    0.0855    0.3420   -0.1837 H   0  0  0  0  0  0  0  0  0  0  0  0
    0.5444    1.2778    2.1287 H   0  0  0  0  0  0  0  0  0  0  0  0
    0.7548    2.9147    1.4276 H   0  0  0  0  0  0  0  0  0  0  0  0
   -1.5095    2.4132    2.4844 H   0  0  0  0  0  0  0  0  0  0  0  0
   -1.8084    1.1968    1.1934 H   0  0  0  0  0  0  0  0  0  0  0  0
   -1.1804    4.1774    0.6498 H   0  0  0  0  0  0  0  0  0  0  0  0
   -1.7429    2.9669   -0.5496 H   0  0  0  0  0  0  0  0  0  0  0  0
   -3.5178    4.5422    0.1935 H   0  0  0  0  0  0  0  0  0  0  0  0
   -3.3504    4.0083    1.8840 H   0  0  0  0  0  0  0  0  0  0  0  0
   -5.1855    3.0022    0.0553 H   0  0  0  0  0  0  0  0  0  0  0  0
   -3.8624    1.8357   -0.2186 H   0  0  0  0  0  0  0  0  0  0  0  0
   -3.8596    1.4184    2.3593 H   0  0  0  0  0  0  0  0  0  0  0  0
   -5.2545    2.5314    2.4570 H   0  0  0  0  0  0  0  0  0  0  0  0
   -6.2036    0.3667    2.4480 H   0  0  0  0  0  0  0  0  0  0  0  0
   -6.4951    0.9945    0.7918 H   0  0  0  0  0  0  0  0  0  0  0  0
   -4.1810   -0.8959    1.6212 H   0  0  0  0  0  0  0  0  0  0  0  0
   -4.5362   -0.3372   -0.0569 H   0  0  0  0  0  0  0  0  0  0  0  0
   -6.4242   -2.0088    1.7215 H   0  0  0  0  0  0  0  0  0  0  0  0
   -6.7851   -1.4352    0.0473 H   0  0  0  0  0  0  0  0  0  0  0  0
   -4.8109   -2.7266   -0.8195 H   0  0  0  0  0  0  0  0  0  0  0  0
   -4.4490   -3.2978    0.8534 H   0  0  0  0  0  0  0  0  0  0  0  0
   -5.6937   -5.0149   -0.4372 H   0  0  0  0  0  0  0  0  0  0  0  0
   -6.6814   -4.4286    0.9544 H   0  0  0  0  0  0  0  0  0  0  0  0
   -7.0451   -3.8545   -0.7255 H   0  0  0  0  0  0  0  0  0  0  0  0
    8.5756   -0.9718   -5.0831 H   0  0  0  0  0  0  0  0  0  0  0  0
  1  2  1  0
  1  3  1  0
  3  4  1  0
  4  5  1  0
  5  6  2  0
  5  7  1  0
  7  8  1  0
  8  9  1  0
  9 10  1  0
 10 11  1  0
 11 12  1  0
 12 13  1  0
 13 14  1  0
 14 15  1  0
 15 16  1  0
 16 17  1  0
 17 18  1  0
 18 19  1  0
 19 20  1  0
 20 21  1  0
  1 22  1  0
 22 23  1  0
 22 24  2  0
  1 25  1  6
  2 26  1  0
  2 27  1  0
  3 28  1  0
  3 29  1  0
  7 30  1  0
  7 31  1  0
  8 32  1  0
  8 33  1  0
  9 34  1  0
  9 35  1  0
 10 36  1  0
 10 37  1  0
 11 38  1  0
 11 39  1  0
 12 40  1  0
 12 41  1  0
 13 42  1  0
 13 43  1  0
 14 44  1  0
 14 45  1  0
 15 46  1  0
 15 47  1  0
 16 48  1  0
 16 49  1  0
 17 50  1  0
 17 51  1  0
 18 52  1  0
 18 53  1  0
 19 54  1  0
 19 55  1  0
 20 56  1  0
 20 57  1  0
 21 58  1  0
 21 59  1  0
 21 60  1  0
 23 61  1  0
M  END
$$$$
