
     RDKit          3D

 50 52  0  0  0  0  0  0  0  0999 V2000
    0.4256    0.2466    1.2817 C   0  0  0  0  0  0  0  0  0  0  0  0
   -0.8229    0.4119    2.1115 C   0  0  0  0  0  0  0  0  0  0  0  0
   -1.5754    1.5959    1.6580 N   0  0  0  0  0  0  0  0  0  0  0  0
   -2.2884    1.3604    0.3988 C   0  0  0  0  0  0  0  0  0  0  0  0
   -3.4495    2.3390    0.3727 C   0  0  0  0  0  0  0  0  0  0  0  0
   -3.6980    2.7010    1.8283 C   0  0  0  0  0  0  0  0  0  0  0  0
   -2.6154    1.9776    2.6173 C   0  0  0  0  0  0  0  0  0  0  0  0
    0.5933   -0.6754    0.3087 C   0  0  0  0  0  0  0  0  0  0  0  0
   -0.4413   -1.7001    0.0372 C   0  0  0  0  0  0  0  0  0  0  0  0
   -0.6628   -2.7460    0.9460 C   0  0  0  0  0  0  0  0  0  0  0  0
   -1.6272   -3.7209    0.6752 C   0  0  0  0  0  0  0  0  0  0  0  0
   -2.3636   -3.6753   -0.5186 C   0  0  0  0  0  0  0  0  0  0  0  0
   -3.4268   -4.6977   -0.7900 C   0  0  0  0  0  0  0  0  0  0  0  0
   -2.1413   -2.6286   -1.4265 C   0  0  0  0  0  0  0  0  0  0  0  0
   -1.1767   -1.6541   -1.1561 C   0  0  0  0  0  0  0  0  0  0  0  0
    1.8234   -0.6492   -0.5340 C   0  0  0  0  0  0  0  0  0  0  0  0
    2.2085   -1.7625   -1.3032 C   0  0  0  0  0  0  0  0  0  0  0  0
    3.3629   -1.6948   -2.0839 C   0  0  0  0  0  0  0  0  0  0  0  0
    4.1288   -0.5296   -2.0984 C   0  0  0  0  0  0  0  0  0  0  0  0
    3.7290    0.5657   -1.3231 C   0  0  0  0  0  0  0  0  0  0  0  0
    2.5971    0.4733   -0.5703 N   0  0  0  0  0  0  0  0  0  0  0  0
    4.5319    1.8059   -1.3276 C   0  0  0  0  0  0  0  0  0  0  0  0
    4.1944    2.8810   -0.6050 C   0  0  0  0  0  0  0  0  0  0  0  0
    4.9997    4.1118   -0.6156 C   0  0  0  0  0  0  0  0  0  0  0  0
    6.1555    4.2031   -1.3872 O   0  0  0  0  0  0  0  0  0  0  0  0
    4.6370    5.0950    0.0833 O   0  0  0  0  0  0  0  0  0  0  0  0
    1.1967    0.9884    1.4515 H   0  0  0  0  0  0  0  0  0  0  0  0
   -1.4650   -0.4940    2.1217 H   0  0  0  0  0  0  0  0  0  0  0  0
   -0.4900    0.5682    3.1613 H   0  0  0  0  0  0  0  0  0  0  0  0
   -2.6948    0.3241    0.3476 H   0  0  0  0  0  0  0  0  0  0  0  0
   -1.6102    1.5317   -0.4649 H   0  0  0  0  0  0  0  0  0  0  0  0
   -3.1669    3.2480   -0.2029 H   0  0  0  0  0  0  0  0  0  0  0  0
   -4.3496    1.8779   -0.0895 H   0  0  0  0  0  0  0  0  0  0  0  0
   -3.6097    3.8006    1.9705 H   0  0  0  0  0  0  0  0  0  0  0  0
   -4.7090    2.3716    2.1541 H   0  0  0  0  0  0  0  0  0  0  0  0
   -3.0625    1.0825    3.1102 H   0  0  0  0  0  0  0  0  0  0  0  0
   -2.1865    2.6439    3.3964 H   0  0  0  0  0  0  0  0  0  0  0  0
   -0.0927   -2.8008    1.8653 H   0  0  0  0  0  0  0  0  0  0  0  0
   -1.7975   -4.5122    1.3947 H   0  0  0  0  0  0  0  0  0  0  0  0
   -3.1632   -5.6707   -0.3232 H   0  0  0  0  0  0  0  0  0  0  0  0
   -4.3927   -4.3452   -0.3719 H   0  0  0  0  0  0  0  0  0  0  0  0
   -3.5429   -4.8617   -1.8825 H   0  0  0  0  0  0  0  0  0  0  0  0
   -2.7132   -2.5679   -2.3442 H   0  0  0  0  0  0  0  0  0  0  0  0
   -1.0102   -0.8566   -1.8699 H   0  0  0  0  0  0  0  0  0  0  0  0
    1.6333   -2.6792   -1.2967 H   0  0  0  0  0  0  0  0  0  0  0  0
    3.6656   -2.5482   -2.6770 H   0  0  0  0  0  0  0  0  0  0  0  0
    5.0241   -0.4839   -2.7063 H   0  0  0  0  0  0  0  0  0  0  0  0
    5.4243    1.8340   -1.9423 H   0  0  0  0  0  0  0  0  0  0  0  0
    3.3047    2.8648    0.0134 H   0  0  0  0  0  0  0  0  0  0  0  0
    6.7101    5.0508   -1.3945 H   0  0  0  0  0  0  0  0  0  0  0  0
  1  2  1  0
  2  3  1  0
  3  4  1  0
  4  5  1  0
  5  6  1  0
  6  7  1  0
  1  8  2  0
  8  9  1  0
  9 10  2  0
 10 11  1  0
 11 12  2  0
 12 13  1  0
 12 14  1  0
 14 15  2  0
  8 16  1  0
 16 17  2  0
 17 18  1  0
 18 19  2  0
 19 20  1  0
 20 21  2  0
 20 22  1  0
 22 23  2  0
 23 24  1  0
 24 25  1  0
 24 26  2  0
  7  3  1  0
 15  9  1  0
 21 16  1  0
  1 27  1  0
  2 28  1  0
  2 29  1  0
  4 30  1  0
  4 31  1  0
  5 32  1  0
  5 33  1  0
  6 34  1  0
  6 35  1  0
  7 36  1  0
  7 37  1  0
 10 38  1  0
 11 39  1  0
 13 40  1  0
 13 41  1  0
 13 42  1  0
 14 43  1  0
 15 44  1  0
 17 45  1  0
 18 46  1  0
 19 47  1  0
 22 48  1  0
 23 49  1  0
 25 50  1  0
M  END
$$$$
