
     RDKit          3D

 37 41  0  0  0  0  0  0  0  0999 V2000
   -3.5864   -4.1614   -0.7385 O   0  0  0  0  0  0  0  0  0  0  0  0
   -2.6722   -3.1109   -0.7714 C   0  0  0  0  0  0  0  0  0  0  0  0
   -1.4412   -3.2873   -1.4077 C   0  0  0  0  0  0  0  0  0  0  0  0
   -0.5130   -2.2438   -1.4452 C   0  0  0  0  0  0  0  0  0  0  0  0
   -0.8075   -1.0029   -0.8487 C   0  0  0  0  0  0  0  0  0  0  0  0
   -2.0528   -0.8298   -0.2131 C   0  0  0  0  0  0  0  0  0  0  0  0
   -2.3907    0.3896    0.3747 O   0  0  0  0  0  0  0  0  0  0  0  0
   -1.5631    1.5106    0.3041 C   0  0  0  0  0  0  0  0  0  0  0  0
   -2.0120    2.7211    0.8435 C   0  0  0  0  0  0  0  0  0  0  0  0
   -1.2118    3.8680    0.7710 C   0  0  0  0  0  0  0  0  0  0  0  0
   -1.6531    5.0773    1.3034 O   0  0  0  0  0  0  0  0  0  0  0  0
    0.0419    3.8004    0.1587 C   0  0  0  0  0  0  0  0  0  0  0  0
    0.4992    2.5935   -0.3761 C   0  0  0  0  0  0  0  0  0  0  0  0
   -0.2975    1.4345   -0.3101 C   0  0  0  0  0  0  0  0  0  0  0  0
    0.2276    0.1110   -0.8438 C   0  0  0  0  0  0  0  0  0  0  0  0
    0.7486    0.2952   -2.1706 O   0  0  0  0  0  0  0  0  0  0  0  0
    2.1103    0.0164   -2.1984 C   0  0  0  0  0  0  0  0  0  0  0  0
    2.8293    0.0936   -3.2284 O   0  0  0  0  0  0  0  0  0  0  0  0
    2.5525   -0.3669   -0.8826 C   0  0  0  0  0  0  0  0  0  0  0  0
    1.4495   -0.3175   -0.0616 C   0  0  0  0  0  0  0  0  0  0  0  0
    1.5550   -0.6393    1.2944 C   0  0  0  0  0  0  0  0  0  0  0  0
    2.8128   -1.0139    1.7982 C   0  0  0  0  0  0  0  0  0  0  0  0
    3.9369   -1.0611    0.9477 C   0  0  0  0  0  0  0  0  0  0  0  0
    3.8117   -0.7342   -0.4130 C   0  0  0  0  0  0  0  0  0  0  0  0
   -2.9751   -1.8812   -0.1737 C   0  0  0  0  0  0  0  0  0  0  0  0
   -4.4874   -4.0652   -0.2849 H   0  0  0  0  0  0  0  0  0  0  0  0
   -1.2008   -4.2367   -1.8692 H   0  0  0  0  0  0  0  0  0  0  0  0
    0.4404   -2.4074   -1.9312 H   0  0  0  0  0  0  0  0  0  0  0  0
   -2.9861    2.7694    1.3140 H   0  0  0  0  0  0  0  0  0  0  0  0
   -2.5572    5.1591    1.7537 H   0  0  0  0  0  0  0  0  0  0  0  0
    0.6658    4.6835    0.1022 H   0  0  0  0  0  0  0  0  0  0  0  0
    1.4800    2.5608   -0.8331 H   0  0  0  0  0  0  0  0  0  0  0  0
    0.6883   -0.6009    1.9415 H   0  0  0  0  0  0  0  0  0  0  0  0
    2.9188   -1.2674    2.8449 H   0  0  0  0  0  0  0  0  0  0  0  0
    4.9010   -1.3507    1.3449 H   0  0  0  0  0  0  0  0  0  0  0  0
    4.6676   -0.7671   -1.0745 H   0  0  0  0  0  0  0  0  0  0  0  0
   -3.9294   -1.7386    0.3177 H   0  0  0  0  0  0  0  0  0  0  0  0
  1  2  1  0
  2  3  2  0
  3  4  1  0
  4  5  2  0
  5  6  1  0
  6  7  1  0
  7  8  1  0
  8  9  2  0
  9 10  1  0
 10 11  1  0
 10 12  2  0
 12 13  1  0
 13 14  2  0
 14 15  1  0
 15 16  1  0
 16 17  1  0
 17 18  2  0
 17 19  1  0
 19 20  2  0
 20 21  1  0
 21 22  2  0
 22 23  1  0
 23 24  2  0
  6 25  2  0
 25  2  1  0
 15  5  1  0
 20 15  1  0
 14  8  1  0
 24 19  1  0
  1 26  1  0
  3 27  1  0
  4 28  1  0
  9 29  1  0
 11 30  1  0
 12 31  1  0
 13 32  1  0
 21 33  1  0
 22 34  1  0
 23 35  1  0
 24 36  1  0
 25 37  1  0
M  END
$$$$
