
     RDKit          2D

139138  0  0  0  0  0  0  0  0999 V2000
   14.2500    1.2990    0.0000 C   0  0  0  0  0  0  0  0  0  0  0  0
   12.7500    1.2990    0.0000 C   0  0  0  0  0  0  0  0  0  0  0  0
   11.2500    1.2990    0.0000 C   0  0  0  0  0  0  0  0  0  0  0  0
    9.7500    1.2990    0.0000 C   0  0  0  0  0  0  0  0  0  0  0  0
    8.2500    1.2990    0.0000 C   0  0  0  0  0  0  0  0  0  0  0  0
    6.7500    1.2990    0.0000 C   0  0  0  0  0  0  0  0  0  0  0  0
    5.2500    1.2990    0.0000 C   0  0  0  0  0  0  0  0  0  0  0  0
    3.7500    1.2990    0.0000 C   0  0  0  0  0  0  0  0  0  0  0  0
    2.2500    1.2990    0.0000 C   0  0  0  0  0  0  0  0  0  0  0  0
    1.5000   -0.0000    0.0000 C   0  0  0  0  0  0  0  0  0  0  0  0
    2.2500   -1.2990    0.0000 C   0  0  0  0  0  0  0  0  0  0  0  0
    3.0000   -2.5981    0.0000 C   0  0  0  0  0  0  0  0  0  0  0  0
    3.7500   -3.8971    0.0000 C   0  0  0  0  0  0  0  0  0  0  0  0
    4.5000   -5.1962    0.0000 C   0  0  0  0  0  0  0  0  0  0  0  0
    5.2500   -6.4952    0.0000 C   0  0  0  0  0  0  0  0  0  0  0  0
    6.0000   -7.7942    0.0000 C   0  0  0  0  0  0  0  0  0  0  0  0
    6.7500   -9.0933    0.0000 C   0  0  0  0  0  0  0  0  0  0  0  0
    7.5000  -10.3923    0.0000 C   0  0  0  0  0  0  0  0  0  0  0  0
    9.0000  -10.3923    0.0000 O   0  0  0  0  0  0  0  0  0  0  0  0
    6.7500  -11.6913    0.0000 O   0  0  0  0  0  0  0  0  0  0  0  0
    7.5000  -12.9904    0.0000 C   0  0  0  0  0  0  0  0  0  0  0  0
    8.2500  -14.2894    0.0000 C   0  0  0  0  0  0  0  0  0  0  0  0
    6.9510  -15.0394    0.0000 C   0  0  0  0  0  0  0  0  0  0  0  0
    5.6519  -15.7894    0.0000 O   0  0  0  0  0  0  0  0  0  0  0  0
    4.3529  -15.0394    0.0000 P   0  0  0  0  0  5  0  0  0  0  0  0
    3.6029  -16.3385    0.0000 O   0  0  0  0  0  0  0  0  0  0  0  0
    5.1029  -13.7404    0.0000 O   0  0  0  0  0  0  0  0  0  0  0  0
    3.0538  -14.2894    0.0000 O   0  0  0  0  0  0  0  0  0  0  0  0
    3.0538  -12.7894    0.0000 C   0  0  0  0  0  0  0  0  0  0  0  0
    3.0538  -11.2894    0.0000 C   0  0  0  0  0  0  0  0  0  0  0  0
    3.0538   -9.7894    0.0000 N   0  0  0  0  0  4  0  0  0  0  0  0
    1.5538   -9.7894    0.0000 C   0  0  0  0  0  0  0  0  0  0  0  0
    4.5538   -9.7894    0.0000 C   0  0  0  0  0  0  0  0  0  0  0  0
    3.0538   -8.2894    0.0000 C   0  0  0  0  0  0  0  0  0  0  0  0
    9.5490  -13.5394    0.0000 O   0  0  0  0  0  0  0  0  0  0  0  0
   10.8481  -14.2894    0.0000 C   0  0  0  0  0  0  0  0  0  0  0  0
   10.8481  -15.7894    0.0000 O   0  0  0  0  0  0  0  0  0  0  0  0
   12.1471  -13.5394    0.0000 C   0  0  0  0  0  0  0  0  0  0  0  0
   13.4462  -12.7894    0.0000 C   0  0  0  0  0  0  0  0  0  0  0  0
   14.7452  -12.0394    0.0000 C   0  0  0  0  0  0  0  0  0  0  0  0
   16.0442  -11.2894    0.0000 C   0  0  0  0  0  0  0  0  0  0  0  0
   17.3433  -10.5394    0.0000 C   0  0  0  0  0  0  0  0  0  0  0  0
   18.6423   -9.7894    0.0000 C   0  0  0  0  0  0  0  0  0  0  0  0
   19.9413   -9.0394    0.0000 C   0  0  0  0  0  0  0  0  0  0  0  0
   21.2404   -8.2894    0.0000 C   0  0  0  0  0  0  0  0  0  0  0  0
   22.5394   -9.0394    0.0000 C   0  0  0  0  0  0  0  0  0  0  0  0
   22.5394  -10.5394    0.0000 C   0  0  0  0  0  0  0  0  0  0  0  0
   22.5394  -12.0394    0.0000 C   0  0  0  0  0  0  0  0  0  0  0  0
   22.5394  -13.5394    0.0000 C   0  0  0  0  0  0  0  0  0  0  0  0
   22.5394  -15.0394    0.0000 C   0  0  0  0  0  0  0  0  0  0  0  0
   22.5394  -16.5394    0.0000 C   0  0  0  0  0  0  0  0  0  0  0  0
   22.5394  -18.0394    0.0000 C   0  0  0  0  0  0  0  0  0  0  0  0
   22.5394  -19.5394    0.0000 C   0  0  0  0  0  0  0  0  0  0  0  0
   22.5394  -21.0394    0.0000 C   0  0  0  0  0  0  0  0  0  0  0  0
   14.2500   -0.2010    0.0000 H   0  0  0  0  0  0  0  0  0  0  0  0
   14.2500    2.7990    0.0000 H   0  0  0  0  0  0  0  0  0  0  0  0
   15.7500    1.2990    0.0000 H   0  0  0  0  0  0  0  0  0  0  0  0
   12.7500    2.7990    0.0000 H   0  0  0  0  0  0  0  0  0  0  0  0
   12.7500   -0.2010    0.0000 H   0  0  0  0  0  0  0  0  0  0  0  0
   11.2500   -0.2010    0.0000 H   0  0  0  0  0  0  0  0  0  0  0  0
   11.2500    2.7990    0.0000 H   0  0  0  0  0  0  0  0  0  0  0  0
    9.7500    2.7990    0.0000 H   0  0  0  0  0  0  0  0  0  0  0  0
    9.7500   -0.2010    0.0000 H   0  0  0  0  0  0  0  0  0  0  0  0
    8.2500   -0.2010    0.0000 H   0  0  0  0  0  0  0  0  0  0  0  0
    8.2500    2.7990    0.0000 H   0  0  0  0  0  0  0  0  0  0  0  0
    6.7500    2.7990    0.0000 H   0  0  0  0  0  0  0  0  0  0  0  0
    6.7500   -0.2010    0.0000 H   0  0  0  0  0  0  0  0  0  0  0  0
    5.2500   -0.2010    0.0000 H   0  0  0  0  0  0  0  0  0  0  0  0
    5.2500    2.7990    0.0000 H   0  0  0  0  0  0  0  0  0  0  0  0
    3.7500    2.7990    0.0000 H   0  0  0  0  0  0  0  0  0  0  0  0
    3.8981    0.0931    0.0000 H   0  0  0  0  0  0  0  0  0  0  0  0
    1.5000    2.5981    0.0000 H   0  0  0  0  0  0  0  0  0  0  0  0
   -0.0000   -0.0000    0.0000 H   0  0  0  0  0  0  0  0  0  0  0  0
    3.3684   -0.8243    0.0000 H   0  0  0  0  0  0  0  0  0  0  0  0
    0.9510   -2.0490    0.0000 H   0  0  0  0  0  0  0  0  0  0  0  0
    1.7010   -3.3481    0.0000 H   0  0  0  0  0  0  0  0  0  0  0  0
    4.2990   -1.8481    0.0000 H   0  0  0  0  0  0  0  0  0  0  0  0
    5.0490   -3.1471    0.0000 H   0  0  0  0  0  0  0  0  0  0  0  0
    2.4510   -4.6471    0.0000 H   0  0  0  0  0  0  0  0  0  0  0  0
    5.7990   -4.4462    0.0000 H   0  0  0  0  0  0  0  0  0  0  0  0
    3.1192   -5.7822    0.0000 H   0  0  0  0  0  0  0  0  0  0  0  0
    3.9510   -7.2452    0.0000 H   0  0  0  0  0  0  0  0  0  0  0  0
    6.5490   -5.7452    0.0000 H   0  0  0  0  0  0  0  0  0  0  0  0
    7.2990   -7.0442    0.0000 H   0  0  0  0  0  0  0  0  0  0  0  0
    4.7010   -8.5442    0.0000 H   0  0  0  0  0  0  0  0  0  0  0  0
    5.5521   -9.9960    0.0000 H   0  0  0  0  0  0  0  0  0  0  0  0
    8.0490   -8.3433    0.0000 H   0  0  0  0  0  0  0  0  0  0  0  0
    6.6847  -13.3364    0.0000 H   0  0  0  0  0  0  0  0  0  0  0  0
    8.7990  -12.2404    0.0000 H   0  0  0  0  0  0  0  0  0  0  0  0
    9.0000  -15.5885    0.0000 H   0  0  0  0  0  0  0  0  0  0  0  0
    6.4179  -14.3321    0.0000 H   0  0  0  0  0  0  0  0  0  0  0  0
    7.7010  -16.3385    0.0000 H   0  0  0  0  0  0  0  0  0  0  0  0
    4.7914  -13.0066    0.0000 H   0  0  0  0  0  0  0  0  0  0  0  0
    1.5538  -12.7894    0.0000 H   0  0  0  0  0  0  0  0  0  0  0  0
    3.9330  -12.6815    0.0000 H   0  0  0  0  0  0  0  0  0  0  0  0
    4.5427  -11.4723    0.0000 H   0  0  0  0  0  0  0  0  0  0  0  0
    1.5650  -11.4723    0.0000 H   0  0  0  0  0  0  0  0  0  0  0  0
    1.3710   -8.3006    0.0000 H   0  0  0  0  0  0  0  0  0  0  0  0
    1.3710  -11.2782    0.0000 H   0  0  0  0  0  0  0  0  0  0  0  0
    0.0538   -9.7894    0.0000 H   0  0  0  0  0  0  0  0  0  0  0  0
    4.7367  -11.2782    0.0000 H   0  0  0  0  0  0  0  0  0  0  0  0
    4.5538   -8.2894    0.0000 H   0  0  0  0  0  0  0  0  0  0  0  0
    6.0427   -9.9723    0.0000 H   0  0  0  0  0  0  0  0  0  0  0  0
    1.5650   -8.1066    0.0000 H   0  0  0  0  0  0  0  0  0  0  0  0
    4.5538   -8.2894    0.0000 H   0  0  0  0  0  0  0  0  0  0  0  0
    2.8710   -6.8006    0.0000 H   0  0  0  0  0  0  0  0  0  0  0  0
   12.8971  -14.8385    0.0000 H   0  0  0  0  0  0  0  0  0  0  0  0
   11.3971  -12.2404    0.0000 H   0  0  0  0  0  0  0  0  0  0  0  0
   12.6962  -11.4904    0.0000 H   0  0  0  0  0  0  0  0  0  0  0  0
   14.1962  -14.0885    0.0000 H   0  0  0  0  0  0  0  0  0  0  0  0
   15.4952  -13.3385    0.0000 H   0  0  0  0  0  0  0  0  0  0  0  0
   13.9952  -10.7404    0.0000 H   0  0  0  0  0  0  0  0  0  0  0  0
   15.2942   -9.9904    0.0000 H   0  0  0  0  0  0  0  0  0  0  0  0
   16.7942  -12.5885    0.0000 H   0  0  0  0  0  0  0  0  0  0  0  0
   16.5933   -9.2404    0.0000 H   0  0  0  0  0  0  0  0  0  0  0  0
   18.0933  -11.8385    0.0000 H   0  0  0  0  0  0  0  0  0  0  0  0
   19.3923  -11.0885    0.0000 H   0  0  0  0  0  0  0  0  0  0  0  0
   17.8923   -8.4904    0.0000 H   0  0  0  0  0  0  0  0  0  0  0  0
   19.1913   -7.7404    0.0000 H   0  0  0  0  0  0  0  0  0  0  0  0
   20.5274  -10.4202    0.0000 H   0  0  0  0  0  0  0  0  0  0  0  0
   21.2404   -6.7894    0.0000 H   0  0  0  0  0  0  0  0  0  0  0  0
   23.8385   -8.2894    0.0000 H   0  0  0  0  0  0  0  0  0  0  0  0
   24.0394  -10.5394    0.0000 H   0  0  0  0  0  0  0  0  0  0  0  0
   21.0506  -10.7223    0.0000 H   0  0  0  0  0  0  0  0  0  0  0  0
   24.0394  -12.0394    0.0000 H   0  0  0  0  0  0  0  0  0  0  0  0
   21.0394  -12.0394    0.0000 H   0  0  0  0  0  0  0  0  0  0  0  0
   21.0394  -13.5394    0.0000 H   0  0  0  0  0  0  0  0  0  0  0  0
   24.0394  -13.5394    0.0000 H   0  0  0  0  0  0  0  0  0  0  0  0
   24.0394  -15.0394    0.0000 H   0  0  0  0  0  0  0  0  0  0  0  0
   21.0394  -15.0394    0.0000 H   0  0  0  0  0  0  0  0  0  0  0  0
   21.0394  -16.5394    0.0000 H   0  0  0  0  0  0  0  0  0  0  0  0
   24.0394  -16.5394    0.0000 H   0  0  0  0  0  0  0  0  0  0  0  0
   24.0394  -18.0394    0.0000 H   0  0  0  0  0  0  0  0  0  0  0  0
   21.0394  -18.0394    0.0000 H   0  0  0  0  0  0  0  0  0  0  0  0
   21.0394  -19.5394    0.0000 H   0  0  0  0  0  0  0  0  0  0  0  0
   24.0394  -19.5394    0.0000 H   0  0  0  0  0  0  0  0  0  0  0  0
   24.0394  -21.0394    0.0000 H   0  0  0  0  0  0  0  0  0  0  0  0
   21.0394  -21.0394    0.0000 H   0  0  0  0  0  0  0  0  0  0  0  0
   22.5394  -22.5394    0.0000 H   0  0  0  0  0  0  0  0  0  0  0  0
  1  2  1  0
  2  3  1  0
  3  4  1  0
  4  5  1  0
  5  6  1  0
  6  7  1  0
  7  8  1  0
  8  9  1  0
  9 10  2  0
 10 11  1  0
 11 12  1  0
 12 13  1  0
 13 14  1  0
 14 15  1  0
 15 16  1  0
 16 17  1  0
 17 18  1  0
 18 19  2  0
 18 20  1  0
 20 21  1  0
 21 22  1  0
 22 23  1  0
 23 24  1  0
 24 25  1  0
 25 26  2  0
 25 27  1  0
 25 28  1  0
 28 29  1  0
 29 30  1  0
 30 31  1  0
 31 32  1  0
 31 33  1  0
 31 34  1  0
 22 35  1  0
 35 36  1  0
 36 37  2  0
 36 38  1  0
 38 39  1  0
 39 40  1  0
 40 41  1  0
 41 42  1  0
 42 43  1  0
 43 44  1  0
 44 45  1  0
 45 46  2  0
 46 47  1  0
 47 48  1  0
 48 49  1  0
 49 50  1  0
 50 51  1  0
 51 52  1  0
 52 53  1  0
 53 54  1  0
  1 55  1  0
  1 56  1  0
  1 57  1  0
  2 58  1  0
  2 59  1  0
  3 60  1  0
  3 61  1  0
  4 62  1  0
  4 63  1  0
  5 64  1  0
  5 65  1  0
  6 66  1  0
  6 67  1  0
  7 68  1  0
  7 69  1  0
  8 70  1  0
  8 71  1  0
  9 72  1  0
 10 73  1  0
 11 74  1  0
 11 75  1  0
 12 76  1  0
 12 77  1  0
 13 78  1  0
 13 79  1  0
 14 80  1  0
 14 81  1  0
 15 82  1  0
 15 83  1  0
 16 84  1  0
 16 85  1  0
 17 86  1  0
 17 87  1  0
 21 88  1  0
 21 89  1  0
 22 90  1  6
 23 91  1  0
 23 92  1  0
 27 93  1  0
 29 94  1  0
 29 95  1  0
 30 96  1  0
 30 97  1  0
 32 98  1  0
 32 99  1  0
 32100  1  0
 33101  1  0
 33102  1  0
 33103  1  0
 34104  1  0
 34105  1  0
 34106  1  0
 38107  1  0
 38108  1  0
 39109  1  0
 39110  1  0
 40111  1  0
 40112  1  0
 41113  1  0
 41114  1  0
 42115  1  0
 42116  1  0
 43117  1  0
 43118  1  0
 44119  1  0
 44120  1  0
 45121  1  0
 46122  1  0
 47123  1  0
 47124  1  0
 48125  1  0
 48126  1  0
 49127  1  0
 49128  1  0
 50129  1  0
 50130  1  0
 51131  1  0
 51132  1  0
 52133  1  0
 52134  1  0
 53135  1  0
 53136  1  0
 54137  1  0
 54138  1  0
 54139  1  0
M  CHG  1  31   1
M  END
$$$$
