
     RDKit          3D

 25 25  0  0  0  0  0  0  0  0999 V2000
    1.2397    1.2731    0.1379 C   0  0  1  0  0  0  0  0  0  0  0  0
    2.2255    2.3474   -0.0011 N   0  0  0  0  0  0  0  0  0  0  0  0
    0.3842    1.1409   -1.1403 C   0  0  0  0  0  0  0  0  0  0  0  0
   -0.7371    0.1495   -0.9543 C   0  0  0  0  0  0  0  0  0  0  0  0
   -1.9181    0.5335   -0.2971 C   0  0  0  0  0  0  0  0  0  0  0  0
   -2.9420   -0.3955   -0.0883 C   0  0  0  0  0  0  0  0  0  0  0  0
   -2.7918   -1.7140   -0.5265 C   0  0  0  0  0  0  0  0  0  0  0  0
   -1.6163   -2.1064   -1.1725 C   0  0  0  0  0  0  0  0  0  0  0  0
   -0.5902   -1.1804   -1.3842 C   0  0  0  0  0  0  0  0  0  0  0  0
    1.9493   -0.0249    0.4576 C   0  0  0  0  0  0  0  0  0  0  0  0
    2.8170   -0.4421   -0.2958 O   0  0  0  0  0  0  0  0  0  0  0  0
    1.5907   -0.8282    1.6750 C   0  0  0  0  0  0  0  0  0  0  0  0
    2.9654   -0.8615    2.8055 Cl  0  0  0  0  0  0  0  0  0  0  0  0
    0.5645    1.5416    0.9810 H   0  0  0  0  0  0  0  0  0  0  0  0
    1.7179    3.2573   -0.0954 H   0  0  0  0  0  0  0  0  0  0  0  0
    2.7745    2.2070   -0.8810 H   0  0  0  0  0  0  0  0  0  0  0  0
   -0.0513    2.1318   -1.3957 H   0  0  0  0  0  0  0  0  0  0  0  0
    1.0239    0.8423   -2.0003 H   0  0  0  0  0  0  0  0  0  0  0  0
   -2.0424    1.5498    0.0560 H   0  0  0  0  0  0  0  0  0  0  0  0
   -3.8506   -0.0941    0.4168 H   0  0  0  0  0  0  0  0  0  0  0  0
   -3.5846   -2.4324   -0.3623 H   0  0  0  0  0  0  0  0  0  0  0  0
   -1.4986   -3.1292   -1.5061 H   0  0  0  0  0  0  0  0  0  0  0  0
    0.3196   -1.5007   -1.8765 H   0  0  0  0  0  0  0  0  0  0  0  0
    1.3396   -1.8665    1.3722 H   0  0  0  0  0  0  0  0  0  0  0  0
    0.7109   -0.3982    2.1975 H   0  0  0  0  0  0  0  0  0  0  0  0
  1  2  1  0
  1  3  1  0
  3  4  1  0
  4  5  2  0
  5  6  1  0
  6  7  2  0
  7  8  1  0
  8  9  2  0
  1 10  1  0
 10 11  2  0
 10 12  1  0
 12 13  1  0
  9  4  1  0
  1 14  1  1
  2 15  1  0
  2 16  1  0
  3 17  1  0
  3 18  1  0
  5 19  1  0
  6 20  1  0
  7 21  1  0
  8 22  1  0
  9 23  1  0
 12 24  1  0
 12 25  1  0
M  END
$$$$
