
     RDKit          3D

 13 12  0  0  0  0  0  0  0  0999 V2000
   -1.7601   -0.3955    0.0790 N   0  0  0  0  0  0  0  0  0  0  0  0
   -0.7583   -0.3237   -0.9845 C   0  0  0  0  0  0  0  0  0  0  0  0
    0.6727   -0.4692   -0.4449 C   0  0  0  0  0  0  0  0  0  0  0  0
    1.0698    0.7046    0.3956 C   0  0  0  0  0  0  0  0  0  0  0  0
    1.0083    0.6173    1.7829 O   0  0  0  0  0  0  0  0  0  0  0  0
    1.4313    1.7801   -0.1526 O   0  0  0  0  0  0  0  0  0  0  0  0
   -1.6160   -1.2753    0.6260 H   0  0  0  0  0  0  0  0  0  0  0  0
   -1.6296    0.4130    0.7289 H   0  0  0  0  0  0  0  0  0  0  0  0
   -0.9513   -1.1425   -1.7106 H   0  0  0  0  0  0  0  0  0  0  0  0
   -0.8650    0.6389   -1.5311 H   0  0  0  0  0  0  0  0  0  0  0  0
    0.7622   -1.4042    0.1492 H   0  0  0  0  0  0  0  0  0  0  0  0
    1.3748   -0.5504   -1.3026 H   0  0  0  0  0  0  0  0  0  0  0  0
    1.2610    1.4070    2.3647 H   0  0  0  0  0  0  0  0  0  0  0  0
  1  2  1  0
  2  3  1  0
  3  4  1  0
  4  5  1  0
  4  6  2  0
  1  7  1  0
  1  8  1  0
  2  9  1  0
  2 10  1  0
  3 11  1  0
  3 12  1  0
  5 13  1  0
M  END
$$$$
