
     RDKit          3D

 32 34  0  0  0  0  0  0  0  0999 V2000
    1.8592   -0.7377    1.6647 C   0  0  1  0  0  0  0  0  0  0  0  0
    2.0308    0.7268    2.0849 C   0  0  0  0  0  0  0  0  0  0  0  0
    1.2371    0.9931    3.2079 O   0  0  0  0  0  0  0  0  0  0  0  0
    0.4921   -0.9907    1.4031 O   0  0  0  0  0  0  0  0  0  0  0  0
    0.3784   -1.4539    0.0755 C   0  0  1  0  0  0  0  0  0  0  0  0
   -0.8424   -0.8703   -0.5764 C   0  0  0  0  0  0  0  0  0  0  0  0
   -1.3292    0.4092   -0.4649 C   0  0  0  0  0  0  0  0  0  0  0  0
   -0.9099    1.4617    0.2763 N   0  0  0  0  0  0  0  0  0  0  0  0
   -1.6006    2.6365    0.1646 C   0  0  0  0  0  0  0  0  0  0  0  0
   -2.6787    2.7343   -0.6797 N   0  0  0  0  0  0  0  0  0  0  0  0
   -3.0955    1.6710   -1.4314 C   0  0  0  0  0  0  0  0  0  0  0  0
   -4.2142    1.7952   -2.3095 N   0  0  0  0  0  0  0  0  0  0  0  0
   -2.3886    0.4808   -1.3085 C   0  0  0  0  0  0  0  0  0  0  0  0
   -2.5654   -0.6944   -1.9406 N   0  0  0  0  0  0  0  0  0  0  0  0
   -1.6136   -1.5093   -1.4895 N   0  0  0  0  0  0  0  0  0  0  0  0
    1.6452   -1.0814   -0.6839 C   0  0  2  0  0  0  0  0  0  0  0  0
    1.9525   -2.0220   -1.6804 O   0  0  0  0  0  0  0  0  0  0  0  0
    2.6849   -1.0642    0.4106 C   0  0  2  0  0  0  0  0  0  0  0  0
    3.3413   -2.3055    0.5401 O   0  0  0  0  0  0  0  0  0  0  0  0
    2.1850   -1.3782    2.5144 H   0  0  0  0  0  0  0  0  0  0  0  0
    1.7326    1.3961    1.2468 H   0  0  0  0  0  0  0  0  0  0  0  0
    3.0990    0.9171    2.3338 H   0  0  0  0  0  0  0  0  0  0  0  0
    1.3726    1.9533    3.4190 H   0  0  0  0  0  0  0  0  0  0  0  0
    0.2684   -2.5613    0.1063 H   0  0  0  0  0  0  0  0  0  0  0  0
   -1.2936    3.4959    0.7445 H   0  0  0  0  0  0  0  0  0  0  0  0
   -4.7251    2.7027   -2.3828 H   0  0  0  0  0  0  0  0  0  0  0  0
   -4.5367    0.9871   -2.8871 H   0  0  0  0  0  0  0  0  0  0  0  0
   -1.4872   -2.4928   -1.8163 H   0  0  0  0  0  0  0  0  0  0  0  0
    1.5676   -0.0569   -1.1217 H   0  0  0  0  0  0  0  0  0  0  0  0
    1.3197   -1.8556   -2.4267 H   0  0  0  0  0  0  0  0  0  0  0  0
    3.4533   -0.2884    0.1959 H   0  0  0  0  0  0  0  0  0  0  0  0
    2.6608   -2.9982    0.7495 H   0  0  0  0  0  0  0  0  0  0  0  0
  1  2  1  0
  2  3  1  0
  1  4  1  0
  4  5  1  0
  5  6  1  0
  6  7  2  0
  7  8  1  0
  8  9  2  0
  9 10  1  0
 10 11  2  0
 11 12  1  0
 11 13  1  0
 13 14  2  0
 14 15  1  0
  5 16  1  0
 16 17  1  0
 16 18  1  0
 18 19  1  0
 18  1  1  0
 15  6  1  0
 13  7  1  0
  1 20  1  1
  2 21  1  0
  2 22  1  0
  3 23  1  0
  5 24  1  1
  9 25  1  0
 12 26  1  0
 12 27  1  0
 15 28  1  0
 16 29  1  6
 17 30  1  0
 18 31  1  6
 19 32  1  0
M  END
$$$$
