
     RDKit          3D

 71 74  0  0  0  0  0  0  0  0999 V2000
   -0.0221    0.8593    0.9931 C   0  0  2  0  0  0  0  0  0  0  0  0
    0.6888    1.4656    2.1984 C   0  0  0  0  0  0  0  0  0  0  0  0
    1.6228    2.5355    1.5998 C   0  0  0  0  0  0  0  0  0  0  0  0
    1.3441    2.5739    0.0627 C   0  0  2  0  0  0  0  0  0  0  0  0
    2.2164    1.6420   -0.5941 O   0  0  0  0  0  0  0  0  0  0  0  0
    3.6125    1.7200   -0.6529 C   0  0  0  0  0  0  0  0  0  0  0  0
    4.2296    2.7483   -0.2639 O   0  0  0  0  0  0  0  0  0  0  0  0
    4.3656    0.5190   -1.1211 C   0  0  0  0  0  0  0  0  0  0  0  0
    4.4432   -0.5286    0.0030 C   0  0  0  0  0  0  0  0  0  0  0  0
    4.6478   -1.9578   -0.5390 C   0  0  0  0  0  0  0  0  0  0  0  0
    3.3484   -2.7829   -0.5795 C   0  0  0  0  0  0  0  0  0  0  0  0
    2.3145   -2.2316   -1.5602 C   0  0  0  0  0  0  0  0  0  0  0  0
    1.5037    3.9415   -0.6027 C   0  0  0  0  0  0  0  0  0  0  0  0
    1.8638    5.1861    0.1593 C   0  0  0  0  0  0  0  0  0  0  0  0
    1.3349    4.0291   -1.8100 O   0  0  0  0  0  0  0  0  0  0  0  0
   -0.1108    2.0182   -0.0237 C   0  0  2  0  0  0  0  0  0  0  0  0
   -1.1349    3.1330    0.3864 C   0  0  0  0  0  0  0  0  0  0  0  0
   -0.5261    1.4283   -1.3985 C   0  0  0  0  0  0  0  0  0  0  0  0
   -1.8435    0.6176   -1.3044 C   0  0  0  0  0  0  0  0  0  0  0  0
   -1.7807   -0.4772   -0.1990 C   0  0  1  0  0  0  0  0  0  0  0  0
   -1.3716    0.1309    1.1853 C   0  0  1  0  0  0  0  0  0  0  0  0
   -1.3436   -0.9336    2.3218 C   0  0  0  0  0  0  0  0  0  0  0  0
   -1.5462   -2.3799    1.8532 C   0  0  0  0  0  0  0  0  0  0  0  0
   -2.7147   -2.5239    0.9009 C   0  0  0  0  0  0  0  0  0  0  0  0
   -3.3375   -3.7129    0.8306 C   0  0  0  0  0  0  0  0  0  0  0  0
   -4.2918   -4.0263   -0.2432 C   0  0  0  0  0  0  0  0  0  0  0  0
   -4.9369   -5.1071   -0.2015 O   0  0  0  0  0  0  0  0  0  0  0  0
   -4.5097   -3.0816   -1.3868 C   0  0  0  0  0  0  0  0  0  0  0  0
   -3.4040   -2.0158   -1.4660 C   0  0  0  0  0  0  0  0  0  0  0  0
   -3.0509   -1.3947   -0.0794 C   0  0  2  0  0  0  0  0  0  0  0  0
   -4.2738   -0.6084    0.4605 C   0  0  0  0  0  0  0  0  0  0  0  0
    0.6812    0.0852    0.6004 H   0  0  0  0  0  0  0  0  0  0  0  0
   -0.0458    1.9255    2.8953 H   0  0  0  0  0  0  0  0  0  0  0  0
    1.2802    0.6996    2.7455 H   0  0  0  0  0  0  0  0  0  0  0  0
    1.3954    3.5015    2.0949 H   0  0  0  0  0  0  0  0  0  0  0  0
    2.6824    2.2889    1.8216 H   0  0  0  0  0  0  0  0  0  0  0  0
    5.3910    0.8065   -1.4407 H   0  0  0  0  0  0  0  0  0  0  0  0
    3.8397    0.1111   -2.0095 H   0  0  0  0  0  0  0  0  0  0  0  0
    5.2995   -0.2633    0.6613 H   0  0  0  0  0  0  0  0  0  0  0  0
    3.5325   -0.4951    0.6434 H   0  0  0  0  0  0  0  0  0  0  0  0
    5.3543   -2.4873    0.1369 H   0  0  0  0  0  0  0  0  0  0  0  0
    5.1234   -1.9437   -1.5445 H   0  0  0  0  0  0  0  0  0  0  0  0
    3.6011   -3.8217   -0.8838 H   0  0  0  0  0  0  0  0  0  0  0  0
    2.9004   -2.8324    0.4369 H   0  0  0  0  0  0  0  0  0  0  0  0
    1.9425   -1.2425   -1.2219 H   0  0  0  0  0  0  0  0  0  0  0  0
    2.7544   -2.1382   -2.5756 H   0  0  0  0  0  0  0  0  0  0  0  0
    1.4480   -2.9241   -1.6117 H   0  0  0  0  0  0  0  0  0  0  0  0
    2.7904    5.0188    0.7468 H   0  0  0  0  0  0  0  0  0  0  0  0
    1.0317    5.4660    0.8381 H   0  0  0  0  0  0  0  0  0  0  0  0
    2.0431    6.0319   -0.5383 H   0  0  0  0  0  0  0  0  0  0  0  0
   -1.1387    3.9489   -0.3663 H   0  0  0  0  0  0  0  0  0  0  0  0
   -2.1779    2.7729    0.4442 H   0  0  0  0  0  0  0  0  0  0  0  0
   -0.8919    3.5856    1.3686 H   0  0  0  0  0  0  0  0  0  0  0  0
   -0.6539    2.2434   -2.1428 H   0  0  0  0  0  0  0  0  0  0  0  0
    0.2645    0.7517   -1.7888 H   0  0  0  0  0  0  0  0  0  0  0  0
   -2.7032    1.2959   -1.1374 H   0  0  0  0  0  0  0  0  0  0  0  0
   -1.9928    0.1456   -2.2968 H   0  0  0  0  0  0  0  0  0  0  0  0
   -0.9503   -1.1500   -0.5200 H   0  0  0  0  0  0  0  0  0  0  0  0
   -2.1219    0.8839    1.4922 H   0  0  0  0  0  0  0  0  0  0  0  0
   -2.1513   -0.6982    3.0501 H   0  0  0  0  0  0  0  0  0  0  0  0
   -0.3963   -0.8950    2.8969 H   0  0  0  0  0  0  0  0  0  0  0  0
   -1.6945   -3.0165    2.7536 H   0  0  0  0  0  0  0  0  0  0  0  0
   -0.6242   -2.7328    1.3421 H   0  0  0  0  0  0  0  0  0  0  0  0
   -3.0844   -4.5009    1.5305 H   0  0  0  0  0  0  0  0  0  0  0  0
   -5.5028   -2.5977   -1.2753 H   0  0  0  0  0  0  0  0  0  0  0  0
   -4.5249   -3.6553   -2.3386 H   0  0  0  0  0  0  0  0  0  0  0  0
   -3.7516   -1.2307   -2.1706 H   0  0  0  0  0  0  0  0  0  0  0  0
   -2.4942   -2.4850   -1.9030 H   0  0  0  0  0  0  0  0  0  0  0  0
   -4.5546    0.2142   -0.2289 H   0  0  0  0  0  0  0  0  0  0  0  0
   -5.1560   -1.2702    0.5792 H   0  0  0  0  0  0  0  0  0  0  0  0
   -4.0817   -0.1827    1.4649 H   0  0  0  0  0  0  0  0  0  0  0  0
  1  2  1  0
  2  3  1  0
  3  4  1  0
  4  5  1  6
  5  6  1  0
  6  7  2  0
  6  8  1  0
  8  9  1  0
  9 10  1  0
 10 11  1  0
 11 12  1  0
  4 13  1  0
 13 14  1  0
 13 15  2  0
  4 16  1  0
 16 17  1  1
 16 18  1  0
 18 19  1  0
 19 20  1  0
 20 21  1  0
 21 22  1  0
 22 23  1  0
 23 24  1  0
 24 25  2  0
 25 26  1  0
 26 27  2  0
 26 28  1  0
 28 29  1  0
 29 30  1  0
 30 31  1  1
 16  1  1  0
 30 20  1  0
 21  1  1  0
 30 24  1  0
  1 32  1  6
  2 33  1  0
  2 34  1  0
  3 35  1  0
  3 36  1  0
  8 37  1  0
  8 38  1  0
  9 39  1  0
  9 40  1  0
 10 41  1  0
 10 42  1  0
 11 43  1  0
 11 44  1  0
 12 45  1  0
 12 46  1  0
 12 47  1  0
 14 48  1  0
 14 49  1  0
 14 50  1  0
 17 51  1  0
 17 52  1  0
 17 53  1  0
 18 54  1  0
 18 55  1  0
 19 56  1  0
 19 57  1  0
 20 58  1  6
 21 59  1  1
 22 60  1  0
 22 61  1  0
 23 62  1  0
 23 63  1  0
 25 64  1  0
 28 65  1  0
 28 66  1  0
 29 67  1  0
 29 68  1  0
 31 69  1  0
 31 70  1  0
 31 71  1  0
M  END
$$$$
