
     RDKit          3D

 56 59  0  0  0  0  0  0  0  0999 V2000
    1.1907   -0.4910    0.7591 C   0  0  2  0  0  0  0  0  0  0  0  0
    2.5112    0.2401    1.2193 C   0  0  1  0  0  0  0  0  0  0  0  0
    2.9942   -0.3437    2.5613 C   0  0  0  0  0  0  0  0  0  0  0  0
    3.6743    0.2259    0.2243 C   0  0  0  0  0  0  0  0  0  0  0  0
    4.7868    1.0495    0.4783 C   0  0  0  0  0  0  0  0  0  0  0  0
    5.9056    1.0131   -0.3506 C   0  0  0  0  0  0  0  0  0  0  0  0
    5.9219    0.1794   -1.4651 C   0  0  0  0  0  0  0  0  0  0  0  0
    4.8133   -0.6122   -1.7774 C   0  0  0  0  0  0  0  0  0  0  0  0
    4.8581   -1.3411   -2.9684 O   0  0  0  0  0  0  0  0  0  0  0  0
    3.6872   -0.6155   -0.9126 C   0  0  0  0  0  0  0  0  0  0  0  0
    2.4838   -1.4102   -1.1874 C   0  0  0  0  0  0  0  0  0  0  0  0
    2.5525   -2.5499   -1.7218 O   0  0  0  0  0  0  0  0  0  0  0  0
    1.2023   -0.8928   -0.6982 C   0  0  0  0  0  0  0  0  0  0  0  0
    0.0879   -0.9143   -1.4687 C   0  0  0  0  0  0  0  0  0  0  0  0
    0.1524   -1.2947   -2.8162 O   0  0  0  0  0  0  0  0  0  0  0  0
   -1.2769   -0.4551   -0.9632 C   0  0  2  0  0  0  0  0  0  0  0  0
   -2.2367   -1.3983   -1.3804 O   0  0  0  0  0  0  0  0  0  0  0  0
   -1.6251    0.8982   -1.5430 C   0  0  0  0  0  0  0  0  0  0  0  0
   -0.8915    1.4440   -2.4138 O   0  0  0  0  0  0  0  0  0  0  0  0
   -2.8580    1.5659   -1.0966 C   0  0  0  0  0  0  0  0  0  0  0  0
   -3.5230    2.5429   -1.9967 C   0  0  0  0  0  0  0  0  0  0  0  0
   -3.5041    2.3598   -3.4140 N   0  0  0  0  0  0  0  0  0  0  0  0
   -4.1110    3.5497   -1.5174 O   0  0  0  0  0  0  0  0  0  0  0  0
   -3.3665    1.2755    0.1168 C   0  0  0  0  0  0  0  0  0  0  0  0
   -4.5705    1.8643    0.5114 O   0  0  0  0  0  0  0  0  0  0  0  0
   -2.6540    0.3692    1.1139 C   0  0  1  0  0  0  0  0  0  0  0  0
   -3.6350   -0.5442    1.7595 N   0  0  0  0  0  0  0  0  0  0  0  0
   -4.1403   -1.6205    0.8934 C   0  0  0  0  0  0  0  0  0  0  0  0
   -3.1688   -1.0732    3.0525 C   0  0  0  0  0  0  0  0  0  0  0  0
   -1.3432   -0.3547    0.5872 C   0  0  2  0  0  0  0  0  0  0  0  0
   -0.0657    0.3304    1.1329 C   0  0  1  0  0  0  0  0  0  0  0  0
   -0.1477    0.4181    2.5355 O   0  0  0  0  0  0  0  0  0  0  0  0
    1.1132   -1.4582    1.3077 H   0  0  0  0  0  0  0  0  0  0  0  0
    2.2769    1.3136    1.3969 H   0  0  0  0  0  0  0  0  0  0  0  0
    3.8339    0.2524    2.9759 H   0  0  0  0  0  0  0  0  0  0  0  0
    3.3365   -1.3922    2.4242 H   0  0  0  0  0  0  0  0  0  0  0  0
    2.1799   -0.3336    3.3144 H   0  0  0  0  0  0  0  0  0  0  0  0
    4.7940    1.7136    1.3336 H   0  0  0  0  0  0  0  0  0  0  0  0
    6.7601    1.6409   -0.1330 H   0  0  0  0  0  0  0  0  0  0  0  0
    6.7883    0.1764   -2.1147 H   0  0  0  0  0  0  0  0  0  0  0  0
    4.0584   -1.8050   -3.3752 H   0  0  0  0  0  0  0  0  0  0  0  0
    1.0142   -1.4744   -3.3147 H   0  0  0  0  0  0  0  0  0  0  0  0
   -2.3403   -1.3352   -2.3669 H   0  0  0  0  0  0  0  0  0  0  0  0
   -3.1135    1.4912   -3.8418 H   0  0  0  0  0  0  0  0  0  0  0  0
   -3.9386    3.0733   -4.0404 H   0  0  0  0  0  0  0  0  0  0  0  0
   -4.9639    1.7088    1.4317 H   0  0  0  0  0  0  0  0  0  0  0  0
   -2.3524    1.1021    1.8929 H   0  0  0  0  0  0  0  0  0  0  0  0
   -3.3745   -2.4074    0.7280 H   0  0  0  0  0  0  0  0  0  0  0  0
   -5.0250   -2.0947    1.3689 H   0  0  0  0  0  0  0  0  0  0  0  0
   -4.4805   -1.2117   -0.0809 H   0  0  0  0  0  0  0  0  0  0  0  0
   -2.8284   -0.2467    3.7120 H   0  0  0  0  0  0  0  0  0  0  0  0
   -4.0075   -1.5813    3.5746 H   0  0  0  0  0  0  0  0  0  0  0  0
   -2.3413   -1.8022    2.9261 H   0  0  0  0  0  0  0  0  0  0  0  0
   -1.3203   -1.3943    0.9756 H   0  0  0  0  0  0  0  0  0  0  0  0
    0.0066    1.3490    0.6788 H   0  0  0  0  0  0  0  0  0  0  0  0
    0.2199    1.3016    2.7996 H   0  0  0  0  0  0  0  0  0  0  0  0
  1  2  1  0
  2  3  1  0
  2  4  1  0
  4  5  2  0
  5  6  1  0
  6  7  2  0
  7  8  1  0
  8  9  1  0
  8 10  2  0
 10 11  1  0
 11 12  2  0
 11 13  1  0
 13 14  2  0
 14 15  1  0
 14 16  1  0
 16 17  1  6
 16 18  1  0
 18 19  2  0
 18 20  1  0
 20 21  1  0
 21 22  1  0
 21 23  2  0
 20 24  2  0
 24 25  1  0
 24 26  1  0
 26 27  1  0
 27 28  1  0
 27 29  1  0
 26 30  1  0
 30 31  1  0
 31 32  1  0
 13  1  1  0
 30 16  1  0
 31  1  1  0
 10  4  1  0
  1 33  1  1
  2 34  1  1
  3 35  1  0
  3 36  1  0
  3 37  1  0
  5 38  1  0
  6 39  1  0
  7 40  1  0
  9 41  1  0
 15 42  1  0
 17 43  1  0
 22 44  1  0
 22 45  1  0
 25 46  1  0
 26 47  1  1
 28 48  1  0
 28 49  1  0
 28 50  1  0
 29 51  1  0
 29 52  1  0
 29 53  1  0
 30 54  1  1
 31 55  1  6
 32 56  1  0
M  END
$$$$
