
     RDKit          3D

 42 44  0  0  0  0  0  0  0  0999 V2000
    4.1228   -0.4467   -1.0409 N   0  0  0  0  0  0  0  0  0  0  0  0
    3.2676   -1.2343   -0.2043 C   0  0  0  0  0  0  0  0  0  0  0  0
    3.7781   -2.1384    0.5696 N   0  0  0  0  0  0  0  0  0  0  0  0
    1.8545   -0.9896   -0.1550 N   0  0  0  0  0  0  0  0  0  0  0  0
    1.1017   -0.4580   -1.2605 C   0  0  0  0  0  0  0  0  0  0  0  0
    1.5954   -0.4644   -2.4201 O   0  0  0  0  0  0  0  0  0  0  0  0
   -0.3008    0.0638   -1.0881 C   0  0  0  0  0  0  0  0  0  0  0  0
   -0.6903    0.1775    0.3246 N   0  0  0  0  0  0  0  0  0  0  0  0
   -1.4683   -0.6846    1.0301 C   0  0  0  0  0  0  0  0  0  0  0  0
   -1.7546   -0.1520    2.2751 C   0  0  0  0  0  0  0  0  0  0  0  0
   -1.1365    1.0771    2.3348 C   0  0  0  0  0  0  0  0  0  0  0  0
   -0.4889    1.2529    1.1272 C   0  0  0  0  0  0  0  0  0  0  0  0
    0.1761    2.5102    0.7262 C   0  0  0  0  0  0  0  0  0  0  0  0
    1.5130    2.5147    0.2975 C   0  0  0  0  0  0  0  0  0  0  0  0
    2.1295    3.7123   -0.0772 C   0  0  0  0  0  0  0  0  0  0  0  0
    1.4199    4.9145   -0.0164 C   0  0  0  0  0  0  0  0  0  0  0  0
    0.0947    4.9214    0.4267 C   0  0  0  0  0  0  0  0  0  0  0  0
   -0.5247    3.7253    0.8022 C   0  0  0  0  0  0  0  0  0  0  0  0
   -2.0570   -1.9468    0.5191 C   0  0  0  0  0  0  0  0  0  0  0  0
   -1.2736   -2.8973   -0.1590 C   0  0  0  0  0  0  0  0  0  0  0  0
   -1.8459   -4.0868   -0.6204 C   0  0  0  0  0  0  0  0  0  0  0  0
   -3.2012   -4.3436   -0.4024 C   0  0  0  0  0  0  0  0  0  0  0  0
   -3.9859   -3.4132    0.2824 C   0  0  0  0  0  0  0  0  0  0  0  0
   -3.4176   -2.2227    0.7456 C   0  0  0  0  0  0  0  0  0  0  0  0
    3.7687    0.4096   -1.5205 H   0  0  0  0  0  0  0  0  0  0  0  0
    5.1419   -0.6629   -1.1128 H   0  0  0  0  0  0  0  0  0  0  0  0
    4.8042   -2.3327    0.5860 H   0  0  0  0  0  0  0  0  0  0  0  0
    1.3524   -1.2676    0.7172 H   0  0  0  0  0  0  0  0  0  0  0  0
   -1.0055   -0.5986   -1.6325 H   0  0  0  0  0  0  0  0  0  0  0  0
   -0.3750    1.0601   -1.5746 H   0  0  0  0  0  0  0  0  0  0  0  0
   -2.3756   -0.5933    3.0438 H   0  0  0  0  0  0  0  0  0  0  0  0
   -1.1852    1.7820    3.1544 H   0  0  0  0  0  0  0  0  0  0  0  0
    2.0890    1.6024    0.2789 H   0  0  0  0  0  0  0  0  0  0  0  0
    3.1605    3.7091   -0.4067 H   0  0  0  0  0  0  0  0  0  0  0  0
    1.8989    5.8410   -0.3055 H   0  0  0  0  0  0  0  0  0  0  0  0
   -0.4527    5.8536    0.4793 H   0  0  0  0  0  0  0  0  0  0  0  0
   -1.5537    3.7446    1.1400 H   0  0  0  0  0  0  0  0  0  0  0  0
   -0.2193   -2.7354   -0.3190 H   0  0  0  0  0  0  0  0  0  0  0  0
   -1.2359   -4.8128   -1.1423 H   0  0  0  0  0  0  0  0  0  0  0  0
   -3.6420   -5.2653   -0.7596 H   0  0  0  0  0  0  0  0  0  0  0  0
   -5.0355   -3.6141    0.4544 H   0  0  0  0  0  0  0  0  0  0  0  0
   -4.0434   -1.5107    1.2692 H   0  0  0  0  0  0  0  0  0  0  0  0
  1  2  1  0
  2  3  2  3
  2  4  1  0
  4  5  1  0
  5  6  2  0
  5  7  1  0
  7  8  1  0
  8  9  1  0
  9 10  2  0
 10 11  1  0
 11 12  2  0
 12 13  1  0
 13 14  2  0
 14 15  1  0
 15 16  2  0
 16 17  1  0
 17 18  2  0
  9 19  1  0
 19 20  2  0
 20 21  1  0
 21 22  2  0
 22 23  1  0
 23 24  2  0
 12  8  1  0
 18 13  1  0
 24 19  1  0
  1 25  1  0
  1 26  1  0
  3 27  1  0
  4 28  1  0
  7 29  1  0
  7 30  1  0
 10 31  1  0
 11 32  1  0
 14 33  1  0
 15 34  1  0
 16 35  1  0
 17 36  1  0
 18 37  1  0
 20 38  1  0
 21 39  1  0
 22 40  1  0
 23 41  1  0
 24 42  1  0
M  END
$$$$
