
     RDKit          3D

 13 13  0  0  0  0  0  0  0  0999 V2000
    2.3325   -0.9457   -0.0287 O   0  0  0  0  0  0  0  0  0  0  0  0
    1.0310   -0.4492   -0.0208 C   0  0  0  0  0  0  0  0  0  0  0  0
    0.7786    0.8917    0.3053 C   0  0  0  0  0  0  0  0  0  0  0  0
   -0.5334    1.3770    0.3093 C   0  0  0  0  0  0  0  0  0  0  0  0
   -1.5955    0.5259   -0.0119 C   0  0  0  0  0  0  0  0  0  0  0  0
   -1.3464   -0.8112   -0.3374 C   0  0  0  0  0  0  0  0  0  0  0  0
   -0.0350   -1.2982   -0.3419 C   0  0  0  0  0  0  0  0  0  0  0  0
    3.1250   -0.3566    0.1990 H   0  0  0  0  0  0  0  0  0  0  0  0
    1.5960    1.5561    0.5550 H   0  0  0  0  0  0  0  0  0  0  0  0
   -0.7267    2.4117    0.5611 H   0  0  0  0  0  0  0  0  0  0  0  0
   -2.6104    0.9020   -0.0087 H   0  0  0  0  0  0  0  0  0  0  0  0
   -2.1688   -1.4695   -0.5860 H   0  0  0  0  0  0  0  0  0  0  0  0
    0.1530   -2.3340   -0.5945 H   0  0  0  0  0  0  0  0  0  0  0  0
  1  2  1  0
  2  3  2  0
  3  4  1  0
  4  5  2  0
  5  6  1  0
  6  7  2  0
  7  2  1  0
  1  8  1  0
  3  9  1  0
  4 10  1  0
  5 11  1  0
  6 12  1  0
  7 13  1  0
M  END
$$$$
