
     RDKit          3D

 17 17  0  0  0  0  0  0  0  0999 V2000
   -2.2821   -0.8343    1.3601 N   0  0  0  0  0  0  0  0  0  0  0  0
   -1.3275   -0.1967    0.5072 C   0  0  0  0  0  0  0  0  0  0  0  0
   -1.7373    0.8055   -0.3819 C   0  0  0  0  0  0  0  0  0  0  0  0
   -0.8056    1.4283   -1.2148 C   0  0  0  0  0  0  0  0  0  0  0  0
    0.5403    1.0556   -1.1662 C   0  0  0  0  0  0  0  0  0  0  0  0
    0.9692    0.0512   -0.2794 C   0  0  0  0  0  0  0  0  0  0  0  0
    0.0238   -0.5710    0.5562 C   0  0  0  0  0  0  0  0  0  0  0  0
    2.3930   -0.3476   -0.2235 C   0  0  0  0  0  0  0  0  0  0  0  0
    2.8094   -1.3428    0.6572 O   0  0  0  0  0  0  0  0  0  0  0  0
    3.2420    0.2088   -0.9715 O   0  0  0  0  0  0  0  0  0  0  0  0
   -1.9881   -1.5826    2.0269 H   0  0  0  0  0  0  0  0  0  0  0  0
   -3.2902   -0.5629    1.3313 H   0  0  0  0  0  0  0  0  0  0  0  0
   -2.7773    1.1032   -0.4290 H   0  0  0  0  0  0  0  0  0  0  0  0
   -1.1270    2.2021   -1.9001 H   0  0  0  0  0  0  0  0  0  0  0  0
    1.2438    1.5533   -1.8221 H   0  0  0  0  0  0  0  0  0  0  0  0
    0.3317   -1.3467    1.2465 H   0  0  0  0  0  0  0  0  0  0  0  0
    3.7818   -1.6233    0.7033 H   0  0  0  0  0  0  0  0  0  0  0  0
  1  2  1  0
  2  3  2  0
  3  4  1  0
  4  5  2  0
  5  6  1  0
  6  7  2  0
  6  8  1  0
  8  9  1  0
  8 10  2  0
  7  2  1  0
  1 11  1  0
  1 12  1  0
  3 13  1  0
  4 14  1  0
  5 15  1  0
  7 16  1  0
  9 17  1  0
M  END
$$$$
