
     RDKit          3D

 41 43  0  0  0  0  0  0  0  0999 V2000
   -1.8258   -0.3700    1.1131 C   0  0  2  0  0  0  0  0  0  0  0  0
   -2.5551    0.1955    2.2045 O   0  0  0  0  0  0  0  0  0  0  0  0
   -3.9226   -0.0211    2.4077 C   0  0  0  0  0  0  0  0  0  0  0  0
   -4.6021    0.6191    3.5696 C   0  0  0  0  0  0  0  0  0  0  0  0
   -4.5758   -0.7834    1.6445 O   0  0  0  0  0  0  0  0  0  0  0  0
   -0.3538   -0.1505    1.3096 C   0  0  0  0  0  0  0  0  0  0  0  0
    0.0490    0.7925    2.0449 O   0  0  0  0  0  0  0  0  0  0  0  0
    0.5867   -0.9600    0.5897 N   0  0  0  0  0  0  0  0  0  0  0  0
    2.0048   -0.7588    0.6739 C   0  0  0  0  0  0  0  0  0  0  0  0
    2.6213   -0.8219    1.9321 C   0  0  0  0  0  0  0  0  0  0  0  0
    4.0034   -0.7114    2.0518 C   0  0  0  0  0  0  0  0  0  0  0  0
    4.7931   -0.5495    0.9169 C   0  0  0  0  0  0  0  0  0  0  0  0
    4.2059   -0.4797   -0.3579 C   0  0  0  0  0  0  0  0  0  0  0  0
    2.7958   -0.5671   -0.4912 C   0  0  0  0  0  0  0  0  0  0  0  0
    2.1894   -0.4117   -1.8460 C   0  0  0  0  0  0  0  0  0  0  0  0
    0.9409   -0.3421   -2.0035 O   0  0  0  0  0  0  0  0  0  0  0  0
    3.0596   -0.2933   -3.0244 C   0  0  0  0  0  0  0  0  0  0  0  0
    2.5595   -0.2151   -4.1785 O   0  0  0  0  0  0  0  0  0  0  0  0
    4.4768   -0.2541   -2.8602 N   0  0  0  0  0  0  0  0  0  0  0  0
    5.0638   -0.3182   -1.5582 C   0  0  0  0  0  0  0  0  0  0  0  0
    6.3171   -0.2420   -1.4439 O   0  0  0  0  0  0  0  0  0  0  0  0
   -2.2495    0.2534   -0.1966 C   0  0  0  0  0  0  0  0  0  0  0  0
   -2.3961    1.6475   -0.3110 C   0  0  0  0  0  0  0  0  0  0  0  0
   -2.7458    2.2218   -1.5364 C   0  0  0  0  0  0  0  0  0  0  0  0
   -2.9408    1.4136   -2.6591 C   0  0  0  0  0  0  0  0  0  0  0  0
   -2.7845    0.0276   -2.5594 C   0  0  0  0  0  0  0  0  0  0  0  0
   -3.0136   -0.9847   -3.9734 Cl  0  0  0  0  0  0  0  0  0  0  0  0
   -2.4377   -0.5513   -1.3336 C   0  0  0  0  0  0  0  0  0  0  0  0
   -2.0095   -1.4679    1.0997 H   0  0  0  0  0  0  0  0  0  0  0  0
   -5.6376    0.9095    3.2930 H   0  0  0  0  0  0  0  0  0  0  0  0
   -4.6351   -0.0952    4.4182 H   0  0  0  0  0  0  0  0  0  0  0  0
   -4.0458    1.5284    3.8796 H   0  0  0  0  0  0  0  0  0  0  0  0
    0.2243   -1.6949   -0.0586 H   0  0  0  0  0  0  0  0  0  0  0  0
    2.0265   -0.9818    2.8227 H   0  0  0  0  0  0  0  0  0  0  0  0
    4.4666   -0.7672    3.0286 H   0  0  0  0  0  0  0  0  0  0  0  0
    5.8669   -0.4794    1.0377 H   0  0  0  0  0  0  0  0  0  0  0  0
    5.0913   -0.1606   -3.7002 H   0  0  0  0  0  0  0  0  0  0  0  0
   -2.2354    2.2883    0.5471 H   0  0  0  0  0  0  0  0  0  0  0  0
   -2.8602    3.2951   -1.6169 H   0  0  0  0  0  0  0  0  0  0  0  0
   -3.2078    1.8653   -3.6060 H   0  0  0  0  0  0  0  0  0  0  0  0
   -2.3082   -1.6247   -1.2698 H   0  0  0  0  0  0  0  0  0  0  0  0
  1  2  1  0
  2  3  1  0
  3  4  1  0
  3  5  2  0
  1  6  1  0
  6  7  2  0
  6  8  1  0
  8  9  1  0
  9 10  2  0
 10 11  1  0
 11 12  2  0
 12 13  1  0
 13 14  2  0
 14 15  1  0
 15 16  2  0
 15 17  1  0
 17 18  2  0
 17 19  1  0
 19 20  1  0
 20 21  2  0
  1 22  1  0
 22 23  2  0
 23 24  1  0
 24 25  2  0
 25 26  1  0
 26 27  1  0
 26 28  2  0
 14  9  1  0
 28 22  1  0
 20 13  1  0
  1 29  1  6
  4 30  1  0
  4 31  1  0
  4 32  1  0
  8 33  1  0
 10 34  1  0
 11 35  1  0
 12 36  1  0
 19 37  1  0
 23 38  1  0
 24 39  1  0
 25 40  1  0
 28 41  1  0
M  END
$$$$
