
     RDKit          3D

 52 53  0  0  0  0  0  0  0  0999 V2000
    6.9612   -3.0136    0.0186 C   0  0  0  0  0  0  0  0  0  0  0  0
    6.6702   -1.7645    0.6372 O   0  0  0  0  0  0  0  0  0  0  0  0
    5.6168   -0.9164    0.2599 C   0  0  0  0  0  0  0  0  0  0  0  0
    4.7358   -1.2405   -0.7877 C   0  0  0  0  0  0  0  0  0  0  0  0
    3.7004   -0.3721   -1.1368 C   0  0  0  0  0  0  0  0  0  0  0  0
    3.5258    0.8411   -0.4521 C   0  0  0  0  0  0  0  0  0  0  0  0
    4.3986    1.1590    0.6027 C   0  0  0  0  0  0  0  0  0  0  0  0
    5.4465    0.2875    0.9595 C   0  0  0  0  0  0  0  0  0  0  0  0
    6.3388    0.5822    2.0030 O   0  0  0  0  0  0  0  0  0  0  0  0
    6.2895    1.7614    2.7997 C   0  0  0  0  0  0  0  0  0  0  0  0
    2.4230    1.7658   -0.8089 C   0  0  0  0  0  0  0  0  0  0  0  0
    1.9908    2.5771    0.0553 O   0  0  0  0  0  0  0  0  0  0  0  0
    1.8494    1.7618   -2.1264 N   0  0  0  0  0  0  0  0  0  0  0  0
    0.6127    2.4737   -2.4401 C   0  0  0  0  0  0  0  0  0  0  0  0
   -0.5617    1.7720   -1.8144 C   0  0  0  0  0  0  0  0  0  0  0  0
   -0.9917    0.5366   -2.3212 C   0  0  0  0  0  0  0  0  0  0  0  0
   -2.0647   -0.1358   -1.7287 C   0  0  0  0  0  0  0  0  0  0  0  0
   -2.7209    0.4193   -0.6134 C   0  0  0  0  0  0  0  0  0  0  0  0
   -3.8013   -0.2149    0.0170 O   0  0  0  0  0  0  0  0  0  0  0  0
   -4.3552   -1.4631   -0.3932 C   0  0  0  0  0  0  0  0  0  0  0  0
   -5.5152   -1.8426    0.5284 C   0  0  0  0  0  0  0  0  0  0  0  0
   -6.5231   -0.7609    0.5924 N   0  0  0  0  0  0  0  0  0  0  0  0
   -7.4290   -0.8101   -0.5691 C   0  0  0  0  0  0  0  0  0  0  0  0
   -7.3109   -0.8763    1.8303 C   0  0  0  0  0  0  0  0  0  0  0  0
   -2.2847    1.6490   -0.1069 C   0  0  0  0  0  0  0  0  0  0  0  0
   -1.2119    2.3215   -0.6990 C   0  0  0  0  0  0  0  0  0  0  0  0
    7.8437   -3.4667    0.5147 H   0  0  0  0  0  0  0  0  0  0  0  0
    6.0985   -3.7042    0.1282 H   0  0  0  0  0  0  0  0  0  0  0  0
    7.1964   -2.8620   -1.0560 H   0  0  0  0  0  0  0  0  0  0  0  0
    4.8386   -2.1668   -1.3362 H   0  0  0  0  0  0  0  0  0  0  0  0
    3.0242   -0.6676   -1.9280 H   0  0  0  0  0  0  0  0  0  0  0  0
    4.2649    2.0909    1.1355 H   0  0  0  0  0  0  0  0  0  0  0  0
    5.3210    1.8171    3.3402 H   0  0  0  0  0  0  0  0  0  0  0  0
    6.4245    2.6598    2.1611 H   0  0  0  0  0  0  0  0  0  0  0  0
    7.1103    1.7295    3.5451 H   0  0  0  0  0  0  0  0  0  0  0  0
    2.3438    1.2741   -2.9065 H   0  0  0  0  0  0  0  0  0  0  0  0
    0.6873    3.5288   -2.0974 H   0  0  0  0  0  0  0  0  0  0  0  0
    0.4717    2.4993   -3.5427 H   0  0  0  0  0  0  0  0  0  0  0  0
   -0.4925    0.0931   -3.1741 H   0  0  0  0  0  0  0  0  0  0  0  0
   -2.3730   -1.0859   -2.1429 H   0  0  0  0  0  0  0  0  0  0  0  0
   -4.7044   -1.3964   -1.4447 H   0  0  0  0  0  0  0  0  0  0  0  0
   -3.5762   -2.2537   -0.3310 H   0  0  0  0  0  0  0  0  0  0  0  0
   -5.9684   -2.8013    0.1879 H   0  0  0  0  0  0  0  0  0  0  0  0
   -5.0772   -2.0282    1.5356 H   0  0  0  0  0  0  0  0  0  0  0  0
   -6.8644   -0.6579   -1.5115 H   0  0  0  0  0  0  0  0  0  0  0  0
   -7.9710   -1.7808   -0.6209 H   0  0  0  0  0  0  0  0  0  0  0  0
   -8.1735    0.0130   -0.5092 H   0  0  0  0  0  0  0  0  0  0  0  0
   -8.0730   -0.0686    1.8807 H   0  0  0  0  0  0  0  0  0  0  0  0
   -6.6511   -0.7521    2.7159 H   0  0  0  0  0  0  0  0  0  0  0  0
   -7.8217   -1.8635    1.8921 H   0  0  0  0  0  0  0  0  0  0  0  0
   -2.7791    2.0845    0.7522 H   0  0  0  0  0  0  0  0  0  0  0  0
   -0.8883    3.2685   -0.2853 H   0  0  0  0  0  0  0  0  0  0  0  0
  1  2  1  0
  2  3  1  0
  3  4  2  0
  4  5  1  0
  5  6  2  0
  6  7  1  0
  7  8  2  0
  8  9  1  0
  9 10  1  0
  6 11  1  0
 11 12  2  0
 11 13  1  0
 13 14  1  0
 14 15  1  0
 15 16  2  0
 16 17  1  0
 17 18  2  0
 18 19  1  0
 19 20  1  0
 20 21  1  0
 21 22  1  0
 22 23  1  0
 22 24  1  0
 18 25  1  0
 25 26  2  0
  8  3  1  0
 26 15  1  0
  1 27  1  0
  1 28  1  0
  1 29  1  0
  4 30  1  0
  5 31  1  0
  7 32  1  0
 10 33  1  0
 10 34  1  0
 10 35  1  0
 13 36  1  0
 14 37  1  0
 14 38  1  0
 16 39  1  0
 17 40  1  0
 20 41  1  0
 20 42  1  0
 21 43  1  0
 21 44  1  0
 23 45  1  0
 23 46  1  0
 23 47  1  0
 24 48  1  0
 24 49  1  0
 24 50  1  0
 25 51  1  0
 26 52  1  0
M  END
$$$$
