
     RDKit          3D

 68 70  0  0  0  0  0  0  0  0999 V2000
    0.0214    0.5526   -0.8283 C   0  0  1  0  0  0  0  0  0  0  0  0
   -1.2696    0.1028   -1.5360 C   0  0  2  0  0  0  0  0  0  0  0  0
   -1.6597    1.1563   -2.5891 C   0  0  0  0  0  0  0  0  0  0  0  0
   -1.8295    2.5779   -1.9962 C   0  0  1  0  0  0  0  0  0  0  0  0
   -3.2781    2.8317   -1.5599 C   0  0  0  0  0  0  0  0  0  0  0  0
   -0.9008    2.8743   -0.8371 C   0  0  0  0  0  0  0  0  0  0  0  0
   -0.1602    1.9379   -0.2228 C   0  0  0  0  0  0  0  0  0  0  0  0
    0.5212    2.2710    1.0421 C   0  0  0  0  0  0  0  0  0  0  0  0
    0.7833    1.3103    1.9262 C   0  0  0  0  0  0  0  0  0  0  0  0
    0.3006   -0.0938    1.6732 C   0  0  2  0  0  0  0  0  0  0  0  0
    0.8619   -1.0791    2.7071 C   0  0  0  0  0  0  0  0  0  0  0  0
    0.5484   -0.5216    0.1948 C   0  0  2  0  0  0  0  0  0  0  0  0
    2.0090   -0.9570   -0.1220 C   0  0  0  0  0  0  0  0  0  0  0  0
    3.0747    0.1381    0.0888 C   0  0  0  0  0  0  0  0  0  0  0  0
    4.4454   -0.2462   -0.4947 C   0  0  2  0  0  0  0  0  0  0  0  0
    5.0866   -1.4325    0.2555 C   0  0  0  0  0  0  0  0  0  0  0  0
    6.5193   -1.6738   -0.2383 C   0  0  1  0  0  0  0  0  0  0  0  0
    6.5008   -2.0057   -1.6038 O   0  0  0  0  0  0  0  0  0  0  0  0
    7.3898   -0.4307   -0.0020 C   0  0  0  0  0  0  0  0  0  0  0  0
    6.6921    0.8277   -0.4296 C   0  0  0  0  0  0  0  0  0  0  0  0
    7.3687    1.8620   -0.6678 O   0  0  0  0  0  0  0  0  0  0  0  0
    5.2958    0.9028   -0.4530 O   0  0  0  0  0  0  0  0  0  0  0  0
   -2.3130   -0.0834   -0.5779 O   0  0  0  0  0  0  0  0  0  0  0  0
   -3.4872   -0.8030   -0.8389 C   0  0  0  0  0  0  0  0  0  0  0  0
   -3.6637   -1.3282   -1.9738 O   0  0  0  0  0  0  0  0  0  0  0  0
   -4.5599   -0.9416    0.2302 C   0  0  0  0  0  0  0  0  0  0  0  0
   -4.8800   -2.4421    0.4086 C   0  0  0  0  0  0  0  0  0  0  0  0
   -5.8222   -0.1990   -0.2565 C   0  0  0  0  0  0  0  0  0  0  0  0
   -4.0407   -0.3321    1.5701 C   0  0  0  0  0  0  0  0  0  0  0  0
   -5.0241   -0.3805    2.7450 C   0  0  0  0  0  0  0  0  0  0  0  0
    0.7812    0.6714   -1.6331 H   0  0  0  0  0  0  0  0  0  0  0  0
   -1.0672   -0.8609   -2.0562 H   0  0  0  0  0  0  0  0  0  0  0  0
   -0.8564    1.1912   -3.3582 H   0  0  0  0  0  0  0  0  0  0  0  0
   -2.5796    0.8371   -3.1245 H   0  0  0  0  0  0  0  0  0  0  0  0
   -1.6006    3.3089   -2.8024 H   0  0  0  0  0  0  0  0  0  0  0  0
   -3.9796    2.6267   -2.3964 H   0  0  0  0  0  0  0  0  0  0  0  0
   -3.5492    2.1932   -0.6950 H   0  0  0  0  0  0  0  0  0  0  0  0
   -3.4051    3.8946   -1.2621 H   0  0  0  0  0  0  0  0  0  0  0  0
   -0.9538    3.8692   -0.4083 H   0  0  0  0  0  0  0  0  0  0  0  0
    0.7841    3.2966    1.2719 H   0  0  0  0  0  0  0  0  0  0  0  0
    1.3043    1.5573    2.8435 H   0  0  0  0  0  0  0  0  0  0  0  0
   -0.8015   -0.0778    1.8220 H   0  0  0  0  0  0  0  0  0  0  0  0
    0.5247   -2.1114    2.4740 H   0  0  0  0  0  0  0  0  0  0  0  0
    1.9714   -1.0541    2.7289 H   0  0  0  0  0  0  0  0  0  0  0  0
    0.4898   -0.8143    3.7199 H   0  0  0  0  0  0  0  0  0  0  0  0
   -0.0488   -1.4515    0.0536 H   0  0  0  0  0  0  0  0  0  0  0  0
    2.2634   -1.8437    0.4949 H   0  0  0  0  0  0  0  0  0  0  0  0
    2.0447   -1.2998   -1.1797 H   0  0  0  0  0  0  0  0  0  0  0  0
    3.1939    0.3531    1.1712 H   0  0  0  0  0  0  0  0  0  0  0  0
    2.7468    1.0754   -0.4074 H   0  0  0  0  0  0  0  0  0  0  0  0
    4.3109   -0.5293   -1.5622 H   0  0  0  0  0  0  0  0  0  0  0  0
    4.4947   -2.3571    0.0859 H   0  0  0  0  0  0  0  0  0  0  0  0
    5.1039   -1.2271    1.3488 H   0  0  0  0  0  0  0  0  0  0  0  0
    6.9450   -2.5242    0.3443 H   0  0  0  0  0  0  0  0  0  0  0  0
    7.3737   -2.4327   -1.8078 H   0  0  0  0  0  0  0  0  0  0  0  0
    8.3535   -0.5339   -0.5465 H   0  0  0  0  0  0  0  0  0  0  0  0
    7.6190   -0.3484    1.0823 H   0  0  0  0  0  0  0  0  0  0  0  0
   -5.7298   -2.5940    1.1058 H   0  0  0  0  0  0  0  0  0  0  0  0
   -5.1706   -2.9037   -0.5598 H   0  0  0  0  0  0  0  0  0  0  0  0
   -3.9939   -2.9855    0.8024 H   0  0  0  0  0  0  0  0  0  0  0  0
   -5.6358    0.8945   -0.3156 H   0  0  0  0  0  0  0  0  0  0  0  0
   -6.6810   -0.3756    0.4241 H   0  0  0  0  0  0  0  0  0  0  0  0
   -6.1255   -0.5555   -1.2647 H   0  0  0  0  0  0  0  0  0  0  0  0
   -3.1175   -0.8686    1.8810 H   0  0  0  0  0  0  0  0  0  0  0  0
   -3.7630    0.7333    1.4105 H   0  0  0  0  0  0  0  0  0  0  0  0
   -5.9455    0.1945    2.5218 H   0  0  0  0  0  0  0  0  0  0  0  0
   -5.2839   -1.4251    3.0103 H   0  0  0  0  0  0  0  0  0  0  0  0
   -4.5467    0.0822    3.6344 H   0  0  0  0  0  0  0  0  0  0  0  0
  1  2  1  0
  2  3  1  0
  3  4  1  0
  4  5  1  0
  4  6  1  0
  6  7  2  0
  7  8  1  0
  8  9  2  0
  9 10  1  0
 10 11  1  0
 10 12  1  0
 12 13  1  0
 13 14  1  0
 14 15  1  0
 15 16  1  0
 16 17  1  0
 17 18  1  0
 17 19  1  0
 19 20  1  0
 20 21  2  0
 20 22  1  0
  2 23  1  0
 23 24  1  0
 24 25  2  0
 24 26  1  0
 26 27  1  0
 26 28  1  0
 26 29  1  0
 29 30  1  0
  7  1  1  0
 22 15  1  0
 12  1  1  0
  1 31  1  6
  2 32  1  6
  3 33  1  0
  3 34  1  0
  4 35  1  6
  5 36  1  0
  5 37  1  0
  5 38  1  0
  6 39  1  0
  8 40  1  0
  9 41  1  0
 10 42  1  6
 11 43  1  0
 11 44  1  0
 11 45  1  0
 12 46  1  6
 13 47  1  0
 13 48  1  0
 14 49  1  0
 14 50  1  0
 15 51  1  6
 16 52  1  0
 16 53  1  0
 17 54  1  1
 18 55  1  0
 19 56  1  0
 19 57  1  0
 27 58  1  0
 27 59  1  0
 27 60  1  0
 28 61  1  0
 28 62  1  0
 28 63  1  0
 29 64  1  0
 29 65  1  0
 30 66  1  0
 30 67  1  0
 30 68  1  0
M  END
$$$$
