
     RDKit          3D

 44 45  0  0  0  0  0  0  0  0999 V2000
    5.6626   -1.7093    0.3280 C   0  0  0  0  0  0  0  0  0  0  0  0
    4.5458   -0.9231    0.7306 O   0  0  0  0  0  0  0  0  0  0  0  0
    3.3929   -0.7280   -0.0448 C   0  0  0  0  0  0  0  0  0  0  0  0
    3.2368   -1.3021   -1.3178 C   0  0  0  0  0  0  0  0  0  0  0  0
    2.0809   -1.0584   -2.0579 C   0  0  0  0  0  0  0  0  0  0  0  0
    1.0643   -0.2580   -1.5348 C   0  0  0  0  0  0  0  0  0  0  0  0
    1.1734    0.2956   -0.2410 C   0  0  0  0  0  0  0  0  0  0  0  0
    2.3696    0.0727    0.4770 C   0  0  0  0  0  0  0  0  0  0  0  0
    0.0647    1.2010    0.3287 C   0  0  1  0  0  0  0  0  0  0  0  0
    0.2728    1.4397    1.7058 O   0  0  0  0  0  0  0  0  0  0  0  0
    0.1557    2.5666   -0.3940 C   0  0  0  0  0  0  0  0  0  0  0  0
   -0.9282    3.5432    0.0852 C   0  0  0  0  0  0  0  0  0  0  0  0
   -2.3280    2.9487   -0.0960 C   0  0  0  0  0  0  0  0  0  0  0  0
   -2.4513    1.5951    0.6128 C   0  0  0  0  0  0  0  0  0  0  0  0
   -1.3748    0.6064    0.1111 C   0  0  2  0  0  0  0  0  0  0  0  0
   -1.5676   -0.7807    0.7759 C   0  0  0  0  0  0  0  0  0  0  0  0
   -2.7846   -1.4443    0.2541 N   0  0  0  0  0  0  0  0  0  0  0  0
   -3.3817   -2.3138    1.2804 C   0  0  0  0  0  0  0  0  0  0  0  0
   -2.4778   -2.2425   -0.9465 C   0  0  0  0  0  0  0  0  0  0  0  0
    6.4276   -1.6903    1.1309 H   0  0  0  0  0  0  0  0  0  0  0  0
    6.1095   -1.2915   -0.5989 H   0  0  0  0  0  0  0  0  0  0  0  0
    5.3485   -2.7613    0.1608 H   0  0  0  0  0  0  0  0  0  0  0  0
    4.0080   -1.9250   -1.7497 H   0  0  0  0  0  0  0  0  0  0  0  0
    1.9755   -1.4845   -3.0475 H   0  0  0  0  0  0  0  0  0  0  0  0
    0.2027   -0.0664   -2.1569 H   0  0  0  0  0  0  0  0  0  0  0  0
    2.5255    0.5231    1.4482 H   0  0  0  0  0  0  0  0  0  0  0  0
    0.2762    0.5682    2.1793 H   0  0  0  0  0  0  0  0  0  0  0  0
    1.1530    3.0229   -0.2073 H   0  0  0  0  0  0  0  0  0  0  0  0
    0.0516    2.4291   -1.4935 H   0  0  0  0  0  0  0  0  0  0  0  0
   -0.8544    4.4854   -0.4995 H   0  0  0  0  0  0  0  0  0  0  0  0
   -0.7646    3.7968    1.1554 H   0  0  0  0  0  0  0  0  0  0  0  0
   -3.0809    3.6513    0.3218 H   0  0  0  0  0  0  0  0  0  0  0  0
   -2.5427    2.8239   -1.1803 H   0  0  0  0  0  0  0  0  0  0  0  0
   -2.3600    1.7427    1.7115 H   0  0  0  0  0  0  0  0  0  0  0  0
   -3.4644    1.1842    0.4106 H   0  0  0  0  0  0  0  0  0  0  0  0
   -1.5513    0.4941   -0.9775 H   0  0  0  0  0  0  0  0  0  0  0  0
   -0.6728   -1.4239    0.6194 H   0  0  0  0  0  0  0  0  0  0  0  0
   -1.6452   -0.6274    1.8763 H   0  0  0  0  0  0  0  0  0  0  0  0
   -4.2842   -2.8235    0.8788 H   0  0  0  0  0  0  0  0  0  0  0  0
   -2.6546   -3.0809    1.6298 H   0  0  0  0  0  0  0  0  0  0  0  0
   -3.7134   -1.7043    2.1483 H   0  0  0  0  0  0  0  0  0  0  0  0
   -3.4138   -2.6640   -1.3721 H   0  0  0  0  0  0  0  0  0  0  0  0
   -1.7812   -3.0780   -0.7103 H   0  0  0  0  0  0  0  0  0  0  0  0
   -2.0201   -1.6093   -1.7343 H   0  0  0  0  0  0  0  0  0  0  0  0
  1  2  1  0
  2  3  1  0
  3  4  2  0
  4  5  1  0
  5  6  2  0
  6  7  1  0
  7  8  2  0
  7  9  1  0
  9 10  1  1
  9 11  1  0
 11 12  1  0
 12 13  1  0
 13 14  1  0
 14 15  1  0
 15 16  1  0
 16 17  1  0
 17 18  1  0
 17 19  1  0
  8  3  1  0
 15  9  1  0
  1 20  1  0
  1 21  1  0
  1 22  1  0
  4 23  1  0
  5 24  1  0
  6 25  1  0
  8 26  1  0
 10 27  1  0
 11 28  1  0
 11 29  1  0
 12 30  1  0
 12 31  1  0
 13 32  1  0
 13 33  1  0
 14 34  1  0
 14 35  1  0
 15 36  1  6
 16 37  1  0
 16 38  1  0
 18 39  1  0
 18 40  1  0
 18 41  1  0
 19 42  1  0
 19 43  1  0
 19 44  1  0
M  END
$$$$
