
     RDKit          3D

 46 48  0  0  0  0  0  0  0  0999 V2000
   -6.7468   -1.5705   -1.3970 C   0  0  0  0  0  0  0  0  0  0  0  0
   -6.3405   -0.1773   -1.0171 C   0  0  0  0  0  0  0  0  0  0  0  0
   -7.3066    0.8316   -0.8942 C   0  0  0  0  0  0  0  0  0  0  0  0
   -6.9303    2.1222   -0.5163 C   0  0  0  0  0  0  0  0  0  0  0  0
   -5.5918    2.4111   -0.2396 C   0  0  0  0  0  0  0  0  0  0  0  0
   -4.6149    1.4044   -0.3222 C   0  0  0  0  0  0  0  0  0  0  0  0
   -4.9987    0.1106   -0.7214 C   0  0  0  0  0  0  0  0  0  0  0  0
   -3.1960    1.7243   -0.0318 C   0  0  0  0  0  0  0  0  0  0  0  0
   -2.7639    2.8769   -0.3082 O   0  0  0  0  0  0  0  0  0  0  0  0
   -2.2672    0.7382    0.5726 C   0  0  0  0  0  0  0  0  0  0  0  0
   -2.7242   -0.2159    1.4964 C   0  0  0  0  0  0  0  0  0  0  0  0
   -1.8215   -1.1184    2.0606 C   0  0  0  0  0  0  0  0  0  0  0  0
   -0.5059   -1.0665    1.7264 N   0  0  0  0  0  0  0  0  0  0  0  0
   -0.0226   -0.1470    0.8456 C   0  0  0  0  0  0  0  0  0  0  0  0
    1.3741   -0.1211    0.5198 N   0  0  0  0  0  0  0  0  0  0  0  0
    2.3158   -1.0699    1.1132 C   0  0  0  0  0  0  0  0  0  0  0  0
    3.7095   -0.8240    0.6014 C   0  0  0  0  0  0  0  0  0  0  0  0
    4.5532    0.0849    1.2559 C   0  0  0  0  0  0  0  0  0  0  0  0
    5.8348    0.3418    0.7602 C   0  0  0  0  0  0  0  0  0  0  0  0
    6.2891   -0.2948   -0.4076 C   0  0  0  0  0  0  0  0  0  0  0  0
    5.4341   -1.1951   -1.0689 C   0  0  0  0  0  0  0  0  0  0  0  0
    4.1532   -1.4520   -0.5713 C   0  0  0  0  0  0  0  0  0  0  0  0
    7.6525   -0.0192   -0.9267 C   0  0  0  0  0  0  0  0  0  0  0  0
    8.7378    0.1946   -0.0204 N   0  0  0  0  0  0  0  0  0  0  0  0
    7.8810    0.0419   -2.2020 N   0  0  0  0  0  0  0  0  0  0  0  0
   -0.8992    0.7762    0.2588 C   0  0  0  0  0  0  0  0  0  0  0  0
   -5.9350   -2.0735   -1.9644 H   0  0  0  0  0  0  0  0  0  0  0  0
   -7.6541   -1.5549   -2.0379 H   0  0  0  0  0  0  0  0  0  0  0  0
   -6.9625   -2.1551   -0.4784 H   0  0  0  0  0  0  0  0  0  0  0  0
   -8.3496    0.6210   -1.0965 H   0  0  0  0  0  0  0  0  0  0  0  0
   -7.6784    2.9000   -0.4342 H   0  0  0  0  0  0  0  0  0  0  0  0
   -5.3216    3.4175    0.0560 H   0  0  0  0  0  0  0  0  0  0  0  0
   -4.2545   -0.6707   -0.8182 H   0  0  0  0  0  0  0  0  0  0  0  0
   -3.7653   -0.2548    1.7909 H   0  0  0  0  0  0  0  0  0  0  0  0
   -2.1666   -1.8580    2.7706 H   0  0  0  0  0  0  0  0  0  0  0  0
    1.7204    0.5957   -0.1592 H   0  0  0  0  0  0  0  0  0  0  0  0
    2.0004   -2.1072    0.8666 H   0  0  0  0  0  0  0  0  0  0  0  0
    2.2963   -0.9669    2.2202 H   0  0  0  0  0  0  0  0  0  0  0  0
    4.2172    0.5983    2.1485 H   0  0  0  0  0  0  0  0  0  0  0  0
    6.4611    1.0566    1.2788 H   0  0  0  0  0  0  0  0  0  0  0  0
    5.7598   -1.7146   -1.9610 H   0  0  0  0  0  0  0  0  0  0  0  0
    3.5084   -2.1438   -1.0992 H   0  0  0  0  0  0  0  0  0  0  0  0
    8.6165    0.0683    1.0087 H   0  0  0  0  0  0  0  0  0  0  0  0
    9.6886    0.4298   -0.3828 H   0  0  0  0  0  0  0  0  0  0  0  0
    7.1326   -0.0828   -2.9195 H   0  0  0  0  0  0  0  0  0  0  0  0
   -0.5186    1.5079   -0.4438 H   0  0  0  0  0  0  0  0  0  0  0  0
  1  2  1  0
  2  3  2  0
  3  4  1  0
  4  5  2  0
  5  6  1  0
  6  7  2  0
  6  8  1  0
  8  9  2  0
  8 10  1  0
 10 11  2  0
 11 12  1  0
 12 13  2  0
 13 14  1  0
 14 15  1  0
 15 16  1  0
 16 17  1  0
 17 18  2  0
 18 19  1  0
 19 20  2  0
 20 21  1  0
 21 22  2  0
 20 23  1  0
 23 24  1  0
 23 25  2  3
 14 26  2  0
  7  2  1  0
 26 10  1  0
 22 17  1  0
  1 27  1  0
  1 28  1  0
  1 29  1  0
  3 30  1  0
  4 31  1  0
  5 32  1  0
  7 33  1  0
 11 34  1  0
 12 35  1  0
 15 36  1  0
 16 37  1  0
 16 38  1  0
 18 39  1  0
 19 40  1  0
 21 41  1  0
 22 42  1  0
 24 43  1  0
 24 44  1  0
 25 45  1  0
 26 46  1  0
M  END
$$$$
