
     RDKit          3D

 45 48  0  0  0  0  0  0  0  0999 V2000
   -1.3250   -0.5021    0.5020 C   0  0  2  0  0  0  0  0  0  0  0  0
   -2.3689   -1.6034    0.6147 C   0  0  0  0  0  0  0  0  0  0  0  0
   -3.7158   -0.8871    0.4004 C   0  0  0  0  0  0  0  0  0  0  0  0
   -3.4079    0.5784   -0.0180 C   0  0  2  0  0  0  0  0  0  0  0  0
   -3.6364    1.5246    1.1898 C   0  0  0  0  0  0  0  0  0  0  0  0
   -4.2785    0.9576   -1.0586 O   0  0  0  0  0  0  0  0  0  0  0  0
   -1.9206    0.5052   -0.4929 C   0  0  2  0  0  0  0  0  0  0  0  0
   -1.8488    0.0117   -1.9716 C   0  0  0  0  0  0  0  0  0  0  0  0
   -1.1011    1.7694   -0.3999 C   0  0  0  0  0  0  0  0  0  0  0  0
    0.2344    1.6982   -0.2638 C   0  0  0  0  0  0  0  0  0  0  0  0
    0.9499    0.3833   -0.0846 C   0  0  0  0  0  0  0  0  0  0  0  0
    2.3075    0.2961   -0.1083 C   0  0  0  0  0  0  0  0  0  0  0  0
    3.1817    1.5043   -0.4150 C   0  0  0  0  0  0  0  0  0  0  0  0
    4.5403    1.1108   -1.0039 C   0  0  0  0  0  0  0  0  0  0  0  0
    5.1622   -0.0093   -0.2330 C   0  0  0  0  0  0  0  0  0  0  0  0
    6.4144   -0.0772   -0.1154 O   0  0  0  0  0  0  0  0  0  0  0  0
    4.3177   -1.0844    0.2985 C   0  0  0  0  0  0  0  0  0  0  0  0
    2.9814   -0.9700    0.3367 C   0  0  0  0  0  0  0  0  0  0  0  0
    2.1738   -2.1541    0.8159 C   0  0  0  0  0  0  0  0  0  0  0  0
    0.7633   -1.7453    1.2352 C   0  0  0  0  0  0  0  0  0  0  0  0
    0.1214   -0.8899    0.1351 C   0  0  1  0  0  0  0  0  0  0  0  0
   -1.2670   -0.0217    1.5074 H   0  0  0  0  0  0  0  0  0  0  0  0
   -2.3294   -2.0874    1.6149 H   0  0  0  0  0  0  0  0  0  0  0  0
   -2.2097   -2.3769   -0.1681 H   0  0  0  0  0  0  0  0  0  0  0  0
   -4.3321   -0.9387    1.3252 H   0  0  0  0  0  0  0  0  0  0  0  0
   -4.2797   -1.4109   -0.4031 H   0  0  0  0  0  0  0  0  0  0  0  0
   -3.0235    1.2378    2.0680 H   0  0  0  0  0  0  0  0  0  0  0  0
   -3.4051    2.5762    0.9231 H   0  0  0  0  0  0  0  0  0  0  0  0
   -4.7042    1.4900    1.4950 H   0  0  0  0  0  0  0  0  0  0  0  0
   -4.0320    1.8809   -1.3295 H   0  0  0  0  0  0  0  0  0  0  0  0
   -2.3286    0.7480   -2.6504 H   0  0  0  0  0  0  0  0  0  0  0  0
   -0.8026   -0.0923   -2.3264 H   0  0  0  0  0  0  0  0  0  0  0  0
   -2.3610   -0.9633   -2.1068 H   0  0  0  0  0  0  0  0  0  0  0  0
   -1.5737    2.7358   -0.5194 H   0  0  0  0  0  0  0  0  0  0  0  0
    0.7747    2.6334   -0.2215 H   0  0  0  0  0  0  0  0  0  0  0  0
    2.7014    2.1667   -1.1651 H   0  0  0  0  0  0  0  0  0  0  0  0
    3.3364    2.0806    0.5228 H   0  0  0  0  0  0  0  0  0  0  0  0
    5.2126    1.9962   -1.0006 H   0  0  0  0  0  0  0  0  0  0  0  0
    4.4054    0.7805   -2.0566 H   0  0  0  0  0  0  0  0  0  0  0  0
    4.7979   -1.9893    0.6534 H   0  0  0  0  0  0  0  0  0  0  0  0
    2.6729   -2.6380    1.6843 H   0  0  0  0  0  0  0  0  0  0  0  0
    2.1124   -2.9002   -0.0062 H   0  0  0  0  0  0  0  0  0  0  0  0
    0.8107   -1.1728    2.1885 H   0  0  0  0  0  0  0  0  0  0  0  0
    0.1616   -2.6634    1.4096 H   0  0  0  0  0  0  0  0  0  0  0  0
    0.1177   -1.4880   -0.8022 H   0  0  0  0  0  0  0  0  0  0  0  0
  1  2  1  0
  2  3  1  0
  3  4  1  0
  4  5  1  0
  4  6  1  6
  4  7  1  0
  7  8  1  6
  7  9  1  0
  9 10  2  0
 10 11  1  0
 11 12  2  0
 12 13  1  0
 13 14  1  0
 14 15  1  0
 15 16  2  0
 15 17  1  0
 17 18  2  0
 18 19  1  0
 19 20  1  0
 20 21  1  0
  7  1  1  0
 21 11  1  0
 21  1  1  0
 18 12  1  0
  1 22  1  1
  2 23  1  0
  2 24  1  0
  3 25  1  0
  3 26  1  0
  5 27  1  0
  5 28  1  0
  5 29  1  0
  6 30  1  0
  8 31  1  0
  8 32  1  0
  8 33  1  0
  9 34  1  0
 10 35  1  0
 13 36  1  0
 13 37  1  0
 14 38  1  0
 14 39  1  0
 17 40  1  0
 19 41  1  0
 19 42  1  0
 20 43  1  0
 20 44  1  0
 21 45  1  6
M  END
$$$$
