
     RDKit          3D

 28 28  0  0  0  0  0  0  0  0999 V2000
    0.7652   -0.7096   -0.2857 C   0  0  1  0  0  0  0  0  0  0  0  0
    1.5407    0.0852    0.7953 C   0  0  0  0  0  0  0  0  0  0  0  0
    3.0136    0.1535    0.4878 C   0  0  0  0  0  0  0  0  0  0  0  0
    3.4900    0.9169   -0.5000 C   0  0  0  0  0  0  0  0  0  0  0  0
    1.0750   -2.1797   -0.1551 C   0  0  0  0  0  0  0  0  0  0  0  0
    1.6224   -2.7812   -1.0655 O   0  0  0  0  0  0  0  0  0  0  0  0
   -0.7756   -0.4920   -0.2638 C   0  0  1  0  0  0  0  0  0  0  0  0
   -1.4494   -0.7042    1.0933 C   0  0  0  0  0  0  0  0  0  0  0  0
   -2.7303    0.1024    1.0127 C   0  0  0  0  0  0  0  0  0  0  0  0
   -2.3919    1.3140    0.1558 C   0  0  0  0  0  0  0  0  0  0  0  0
   -1.2155    0.9087   -0.7389 C   0  0  2  0  0  0  0  0  0  0  0  0
   -1.6275    0.8694   -2.0811 O   0  0  0  0  0  0  0  0  0  0  0  0
    1.1150   -0.3732   -1.2883 H   0  0  0  0  0  0  0  0  0  0  0  0
    1.1517    1.1193    0.8964 H   0  0  0  0  0  0  0  0  0  0  0  0
    1.4224   -0.4046    1.7859 H   0  0  0  0  0  0  0  0  0  0  0  0
    3.7086   -0.4074    1.1057 H   0  0  0  0  0  0  0  0  0  0  0  0
    4.5579    0.9571   -0.6885 H   0  0  0  0  0  0  0  0  0  0  0  0
    2.8229    1.5063   -1.1218 H   0  0  0  0  0  0  0  0  0  0  0  0
    0.8106   -2.7125    0.7529 H   0  0  0  0  0  0  0  0  0  0  0  0
   -1.2289   -1.2356   -0.9618 H   0  0  0  0  0  0  0  0  0  0  0  0
   -1.6624   -1.7792    1.2799 H   0  0  0  0  0  0  0  0  0  0  0  0
   -0.8392   -0.3031    1.9282 H   0  0  0  0  0  0  0  0  0  0  0  0
   -3.0855    0.4034    2.0222 H   0  0  0  0  0  0  0  0  0  0  0  0
   -3.5191   -0.5014    0.5113 H   0  0  0  0  0  0  0  0  0  0  0  0
   -2.0851    2.1553    0.8163 H   0  0  0  0  0  0  0  0  0  0  0  0
   -3.2778    1.6362   -0.4346 H   0  0  0  0  0  0  0  0  0  0  0  0
   -0.4055    1.6639   -0.6251 H   0  0  0  0  0  0  0  0  0  0  0  0
   -0.8023    0.7919   -2.6278 H   0  0  0  0  0  0  0  0  0  0  0  0
  1  2  1  0
  2  3  1  0
  3  4  2  3
  1  5  1  0
  5  6  2  0
  1  7  1  0
  7  8  1  0
  8  9  1  0
  9 10  1  0
 10 11  1  0
 11 12  1  0
 11  7  1  0
  1 13  1  6
  2 14  1  0
  2 15  1  0
  3 16  1  0
  4 17  1  0
  4 18  1  0
  5 19  1  0
  7 20  1  6
  8 21  1  0
  8 22  1  0
  9 23  1  0
  9 24  1  0
 10 25  1  0
 10 26  1  0
 11 27  1  6
 12 28  1  0
M  END
$$$$
