
     RDKit          3D

 62 66  0  0  0  0  0  0  0  0999 V2000
   -1.5906    1.5977    1.5742 C   0  0  1  0  0  0  0  0  0  0  0  0
   -2.9032    2.1897    2.1085 C   0  0  0  0  0  0  0  0  0  0  0  0
   -4.0117    1.1435    2.2299 C   0  0  0  0  0  0  0  0  0  0  0  0
   -3.5522   -0.1211    2.9147 C   0  0  0  0  0  0  0  0  0  0  0  0
   -4.5293   -0.9846    3.4373 C   0  0  0  0  0  0  0  0  0  0  0  0
   -4.1621   -2.1609    4.0995 C   0  0  0  0  0  0  0  0  0  0  0  0
   -5.1311   -3.0143    4.6226 O   0  0  0  0  0  0  0  0  0  0  0  0
   -2.8129   -2.4794    4.2471 C   0  0  0  0  0  0  0  0  0  0  0  0
   -1.8312   -1.6407    3.7183 C   0  0  0  0  0  0  0  0  0  0  0  0
   -2.1821   -0.4817    2.9972 C   0  0  0  0  0  0  0  0  0  0  0  0
   -1.0797    0.4424    2.4857 C   0  0  1  0  0  0  0  0  0  0  0  0
    0.1052   -0.2714    1.8399 C   0  0  0  0  0  0  0  0  0  0  0  0
    1.3681    0.3442    1.8684 C   0  0  0  0  0  0  0  0  0  0  0  0
    2.4452   -0.2036    1.1671 C   0  0  0  0  0  0  0  0  0  0  0  0
    2.2751   -1.3767    0.4096 C   0  0  0  0  0  0  0  0  0  0  0  0
    3.2985   -1.9304   -0.3762 O   0  0  0  0  0  0  0  0  0  0  0  0
    4.5498   -1.3073   -0.6656 C   0  0  0  0  0  0  0  0  0  0  0  0
    4.3928   -0.1283   -1.6354 C   0  0  0  0  0  0  0  0  0  0  0  0
    3.8995   -0.6010   -2.9537 N   0  0  0  0  0  0  0  0  0  0  0  0
    2.4417   -0.4392   -3.0786 C   0  0  0  0  0  0  0  0  0  0  0  0
    2.1736    0.9284   -3.6929 C   0  0  0  0  0  0  0  0  0  0  0  0
    3.4955    1.3649   -4.2962 C   0  0  0  0  0  0  0  0  0  0  0  0
    4.4432    0.1998   -4.0604 C   0  0  0  0  0  0  0  0  0  0  0  0
    1.0303   -2.0117    0.4090 C   0  0  0  0  0  0  0  0  0  0  0  0
   -0.0482   -1.4631    1.1046 C   0  0  0  0  0  0  0  0  0  0  0  0
   -1.6707    1.2710    0.0821 C   0  0  0  0  0  0  0  0  0  0  0  0
   -2.3420    0.1305   -0.4036 C   0  0  0  0  0  0  0  0  0  0  0  0
   -2.3730   -0.1478   -1.7731 C   0  0  0  0  0  0  0  0  0  0  0  0
   -1.7485    0.7118   -2.6779 C   0  0  0  0  0  0  0  0  0  0  0  0
   -1.0965    1.8553   -2.2152 C   0  0  0  0  0  0  0  0  0  0  0  0
   -1.0574    2.1353   -0.8464 C   0  0  0  0  0  0  0  0  0  0  0  0
   -0.8377    2.4112    1.6882 H   0  0  0  0  0  0  0  0  0  0  0  0
   -3.2449    3.0157    1.4468 H   0  0  0  0  0  0  0  0  0  0  0  0
   -2.7169    2.6285    3.1142 H   0  0  0  0  0  0  0  0  0  0  0  0
   -4.8470    1.5952    2.8087 H   0  0  0  0  0  0  0  0  0  0  0  0
   -4.4140    0.8963    1.2258 H   0  0  0  0  0  0  0  0  0  0  0  0
   -5.5792   -0.7353    3.3403 H   0  0  0  0  0  0  0  0  0  0  0  0
   -6.1199   -2.8104    4.5350 H   0  0  0  0  0  0  0  0  0  0  0  0
   -2.5230   -3.3771    4.7784 H   0  0  0  0  0  0  0  0  0  0  0  0
   -0.7910   -1.9005    3.8692 H   0  0  0  0  0  0  0  0  0  0  0  0
   -0.6926    0.9291    3.4103 H   0  0  0  0  0  0  0  0  0  0  0  0
    1.5118    1.2699    2.4118 H   0  0  0  0  0  0  0  0  0  0  0  0
    3.3959    0.3084    1.2036 H   0  0  0  0  0  0  0  0  0  0  0  0
    5.0435   -0.9782    0.2734 H   0  0  0  0  0  0  0  0  0  0  0  0
    5.2160   -2.0633   -1.1328 H   0  0  0  0  0  0  0  0  0  0  0  0
    5.4021    0.3313   -1.7204 H   0  0  0  0  0  0  0  0  0  0  0  0
    3.7346    0.6568   -1.2013 H   0  0  0  0  0  0  0  0  0  0  0  0
    2.0558   -1.2303   -3.7582 H   0  0  0  0  0  0  0  0  0  0  0  0
    1.9047   -0.5460   -2.1140 H   0  0  0  0  0  0  0  0  0  0  0  0
    1.3780    0.8644   -4.4671 H   0  0  0  0  0  0  0  0  0  0  0  0
    1.8597    1.6463   -2.9037 H   0  0  0  0  0  0  0  0  0  0  0  0
    3.3937    1.5825   -5.3818 H   0  0  0  0  0  0  0  0  0  0  0  0
    3.8735    2.2707   -3.7730 H   0  0  0  0  0  0  0  0  0  0  0  0
    4.4687   -0.4368   -4.9725 H   0  0  0  0  0  0  0  0  0  0  0  0
    5.4844    0.5495   -3.8856 H   0  0  0  0  0  0  0  0  0  0  0  0
    0.8875   -2.9168   -0.1678 H   0  0  0  0  0  0  0  0  0  0  0  0
   -1.0061   -1.9614    1.0453 H   0  0  0  0  0  0  0  0  0  0  0  0
   -2.8234   -0.5621    0.2698 H   0  0  0  0  0  0  0  0  0  0  0  0
   -2.8798   -1.0340   -2.1326 H   0  0  0  0  0  0  0  0  0  0  0  0
   -1.7718    0.4934   -3.7376 H   0  0  0  0  0  0  0  0  0  0  0  0
   -0.6179    2.5251   -2.9178 H   0  0  0  0  0  0  0  0  0  0  0  0
   -0.5409    3.0265   -0.5125 H   0  0  0  0  0  0  0  0  0  0  0  0
  1  2  1  0
  2  3  1  0
  3  4  1  0
  4  5  2  0
  5  6  1  0
  6  7  1  0
  6  8  2  0
  8  9  1  0
  9 10  2  0
 10 11  1  0
 11 12  1  0
 12 13  2  0
 13 14  1  0
 14 15  2  0
 15 16  1  0
 16 17  1  0
 17 18  1  0
 18 19  1  0
 19 20  1  0
 20 21  1  0
 21 22  1  0
 22 23  1  0
 15 24  1  0
 24 25  2  0
  1 26  1  0
 26 27  2  0
 27 28  1  0
 28 29  2  0
 29 30  1  0
 30 31  2  0
 11  1  1  0
 25 12  1  0
 31 26  1  0
 10  4  1  0
 23 19  1  0
  1 32  1  6
  2 33  1  0
  2 34  1  0
  3 35  1  0
  3 36  1  0
  5 37  1  0
  7 38  1  0
  8 39  1  0
  9 40  1  0
 11 41  1  1
 13 42  1  0
 14 43  1  0
 17 44  1  0
 17 45  1  0
 18 46  1  0
 18 47  1  0
 20 48  1  0
 20 49  1  0
 21 50  1  0
 21 51  1  0
 22 52  1  0
 22 53  1  0
 23 54  1  0
 23 55  1  0
 24 56  1  0
 25 57  1  0
 27 58  1  0
 28 59  1  0
 29 60  1  0
 30 61  1  0
 31 62  1  0
M  END
$$$$
