
     RDKit          3D

 48 51  0  0  0  0  0  0  0  0999 V2000
    4.6199    2.5009   -1.2150 C   0  0  0  0  0  0  0  0  0  0  0  0
    4.0508    1.2177   -0.8234 N   0  0  0  0  0  0  0  0  0  0  0  0
    4.6821   -0.0235   -1.1668 C   0  0  0  0  0  0  0  0  0  0  0  0
    5.7642   -0.0221   -1.8145 O   0  0  0  0  0  0  0  0  0  0  0  0
    4.0447   -1.3384   -0.8097 C   0  0  1  0  0  0  0  0  0  0  0  0
    3.3869   -1.2539    0.4318 O   0  0  0  0  0  0  0  0  0  0  0  0
    2.3656   -2.2296    0.4159 C   0  0  2  0  0  0  0  0  0  0  0  0
    2.0865   -2.6478   -1.0398 C   0  0  2  0  0  0  0  0  0  0  0  0
    2.3408   -4.0202   -1.2366 O   0  0  0  0  0  0  0  0  0  0  0  0
    3.0167   -1.7633   -1.8478 C   0  0  2  0  0  0  0  0  0  0  0  0
    3.6107   -2.4590   -2.9138 O   0  0  0  0  0  0  0  0  0  0  0  0
    1.1601   -1.6910    1.0515 N   0  0  0  0  0  0  0  0  0  0  0  0
    0.4950   -2.2018    2.1200 C   0  0  0  0  0  0  0  0  0  0  0  0
   -0.5981   -1.4718    2.4762 N   0  0  0  0  0  0  0  0  0  0  0  0
   -0.5923   -0.4692    1.5776 C   0  0  0  0  0  0  0  0  0  0  0  0
   -1.4822    0.5893    1.4289 C   0  0  0  0  0  0  0  0  0  0  0  0
   -2.6053    0.7528    2.3073 N   0  0  0  0  0  0  0  0  0  0  0  0
   -3.5952    1.8120    2.1256 C   0  0  0  0  0  0  0  0  0  0  0  0
   -4.4584    1.5188    0.9286 C   0  0  0  0  0  0  0  0  0  0  0  0
   -4.3270    2.2716   -0.2504 C   0  0  0  0  0  0  0  0  0  0  0  0
   -5.1121    1.9722   -1.3690 C   0  0  0  0  0  0  0  0  0  0  0  0
   -4.9015    3.1023   -3.1369 I   0  0  0  0  0  0  0  0  0  0  0  0
   -6.0323    0.9204   -1.3164 C   0  0  0  0  0  0  0  0  0  0  0  0
   -6.1663    0.1662   -0.1476 C   0  0  0  0  0  0  0  0  0  0  0  0
   -5.3813    0.4611    0.9711 C   0  0  0  0  0  0  0  0  0  0  0  0
   -1.2481    1.4683    0.4067 N   0  0  0  0  0  0  0  0  0  0  0  0
   -0.1833    1.3132   -0.4436 C   0  0  0  0  0  0  0  0  0  0  0  0
    0.6803    0.2659   -0.2878 N   0  0  0  0  0  0  0  0  0  0  0  0
    0.4533   -0.5990    0.7294 C   0  0  0  0  0  0  0  0  0  0  0  0
    3.9744    3.3272   -0.8494 H   0  0  0  0  0  0  0  0  0  0  0  0
    4.6868    2.5606   -2.3217 H   0  0  0  0  0  0  0  0  0  0  0  0
    5.6326    2.6141   -0.7741 H   0  0  0  0  0  0  0  0  0  0  0  0
    3.1617    1.2141   -0.2772 H   0  0  0  0  0  0  0  0  0  0  0  0
    4.8431   -2.1127   -0.7293 H   0  0  0  0  0  0  0  0  0  0  0  0
    2.7207   -3.1053    1.0053 H   0  0  0  0  0  0  0  0  0  0  0  0
    1.0319   -2.4474   -1.3318 H   0  0  0  0  0  0  0  0  0  0  0  0
    3.2871   -4.1981   -0.9913 H   0  0  0  0  0  0  0  0  0  0  0  0
    2.4434   -0.8826   -2.2251 H   0  0  0  0  0  0  0  0  0  0  0  0
    4.0454   -1.7759   -3.4878 H   0  0  0  0  0  0  0  0  0  0  0  0
    0.7985   -3.1012    2.6399 H   0  0  0  0  0  0  0  0  0  0  0  0
   -2.7297    0.0924    3.1079 H   0  0  0  0  0  0  0  0  0  0  0  0
   -3.0820    2.7936    2.0288 H   0  0  0  0  0  0  0  0  0  0  0  0
   -4.2411    1.8702    3.0285 H   0  0  0  0  0  0  0  0  0  0  0  0
   -3.6140    3.0849   -0.3033 H   0  0  0  0  0  0  0  0  0  0  0  0
   -6.6406    0.6859   -2.1802 H   0  0  0  0  0  0  0  0  0  0  0  0
   -6.8765   -0.6497   -0.1094 H   0  0  0  0  0  0  0  0  0  0  0  0
   -5.4888   -0.1353    1.8687 H   0  0  0  0  0  0  0  0  0  0  0  0
   -0.0272    2.0232   -1.2439 H   0  0  0  0  0  0  0  0  0  0  0  0
  1  2  1  0
  2  3  1  0
  3  4  2  0
  3  5  1  0
  5  6  1  0
  6  7  1  0
  7  8  1  0
  8  9  1  0
  8 10  1  0
 10 11  1  0
  7 12  1  0
 12 13  1  0
 13 14  2  0
 14 15  1  0
 15 16  2  0
 16 17  1  0
 17 18  1  0
 18 19  1  0
 19 20  2  0
 20 21  1  0
 21 22  1  0
 21 23  2  0
 23 24  1  0
 24 25  2  0
 16 26  1  0
 26 27  2  0
 27 28  1  0
 28 29  2  0
 10  5  1  0
 29 12  1  0
 29 15  1  0
 25 19  1  0
  1 30  1  0
  1 31  1  0
  1 32  1  0
  2 33  1  0
  5 34  1  1
  7 35  1  1
  8 36  1  6
  9 37  1  0
 10 38  1  6
 11 39  1  0
 13 40  1  0
 17 41  1  0
 18 42  1  0
 18 43  1  0
 20 44  1  0
 23 45  1  0
 24 46  1  0
 25 47  1  0
 27 48  1  0
M  END
$$$$
