
     RDKit          3D

 45 48  0  0  0  0  0  0  0  0999 V2000
    7.7731    1.2895   -1.0798 N   0  0  0  0  0  0  0  0  0  0  0  0
    6.5688    0.7801   -1.6654 C   0  0  0  0  0  0  0  0  0  0  0  0
    6.4308    0.7941   -2.9583 N   0  0  0  0  0  4  0  0  0  0  0  0
    5.4965    0.2362   -0.7950 C   0  0  0  0  0  0  0  0  0  0  0  0
    5.8327   -0.4960    0.3767 C   0  0  0  0  0  0  0  0  0  0  0  0
    4.8286   -1.0136    1.2156 C   0  0  0  0  0  0  0  0  0  0  0  0
    3.5053   -0.7818    0.8558 C   0  0  0  0  0  0  0  0  0  0  0  0
    2.3916   -1.1630    1.4923 N   0  0  0  0  0  0  0  0  0  0  0  0
    1.3860   -0.6654    0.7241 C   0  0  0  0  0  0  0  0  0  0  0  0
    1.8332    0.0117   -0.3691 N   0  0  0  0  0  0  0  0  0  0  0  0
    3.1698   -0.0803   -0.2593 C   0  0  0  0  0  0  0  0  0  0  0  0
    4.1326    0.4481   -1.1147 C   0  0  0  0  0  0  0  0  0  0  0  0
   -0.0559   -0.8412    1.0359 C   0  0  0  0  0  0  0  0  0  0  0  0
   -0.4719   -1.9011    1.8611 C   0  0  0  0  0  0  0  0  0  0  0  0
   -1.8232   -2.0829    2.1558 C   0  0  0  0  0  0  0  0  0  0  0  0
   -2.7807   -1.2154    1.6319 C   0  0  0  0  0  0  0  0  0  0  0  0
   -2.3918   -0.1501    0.8000 C   0  0  0  0  0  0  0  0  0  0  0  0
   -3.3186    0.7503    0.2478 O   0  0  0  0  0  0  0  0  0  0  0  0
   -4.7392    0.6648    0.3828 C   0  0  0  0  0  0  0  0  0  0  0  0
   -5.3168   -0.4941   -0.4375 C   0  0  0  0  0  0  0  0  0  0  0  0
   -6.4982    0.0641   -1.2276 C   0  0  0  0  0  0  0  0  0  0  0  0
   -6.7280    1.4772   -0.7178 C   0  0  0  0  0  0  0  0  0  0  0  0
   -5.3896    1.9263   -0.1660 C   0  0  0  0  0  0  0  0  0  0  0  0
   -1.0313    0.0347    0.5079 C   0  0  0  0  0  0  0  0  0  0  0  0
   -0.6602    1.1047   -0.3010 O   0  0  0  0  0  1  0  0  0  0  0  0
    8.5553    1.6330   -1.6805 H   0  0  0  0  0  0  0  0  0  0  0  0
    7.8742    1.3762   -0.0445 H   0  0  0  0  0  0  0  0  0  0  0  0
    7.1835    1.1800   -3.5711 H   0  0  0  0  0  0  0  0  0  0  0  0
    5.5840    0.3999   -3.4254 H   0  0  0  0  0  0  0  0  0  0  0  0
    6.8684   -0.6814    0.6310 H   0  0  0  0  0  0  0  0  0  0  0  0
    5.0780   -1.5745    2.1071 H   0  0  0  0  0  0  0  0  0  0  0  0
    2.3296   -1.6955    2.3881 H   0  0  0  0  0  0  0  0  0  0  0  0
    3.8321    1.0201   -1.9833 H   0  0  0  0  0  0  0  0  0  0  0  0
    0.2410   -2.6064    2.2660 H   0  0  0  0  0  0  0  0  0  0  0  0
   -2.1304   -2.9043    2.7906 H   0  0  0  0  0  0  0  0  0  0  0  0
   -3.8177   -1.3834    1.8831 H   0  0  0  0  0  0  0  0  0  0  0  0
   -5.0219    0.5617    1.4546 H   0  0  0  0  0  0  0  0  0  0  0  0
   -5.6584   -1.3082    0.2380 H   0  0  0  0  0  0  0  0  0  0  0  0
   -4.5565   -0.9085   -1.1359 H   0  0  0  0  0  0  0  0  0  0  0  0
   -6.2442    0.0963   -2.3102 H   0  0  0  0  0  0  0  0  0  0  0  0
   -7.4080   -0.5598   -1.0893 H   0  0  0  0  0  0  0  0  0  0  0  0
   -7.4815    1.4619    0.1007 H   0  0  0  0  0  0  0  0  0  0  0  0
   -7.0794    2.1514   -1.5287 H   0  0  0  0  0  0  0  0  0  0  0  0
   -5.5162    2.6970    0.6252 H   0  0  0  0  0  0  0  0  0  0  0  0
   -4.7753    2.3479   -0.9931 H   0  0  0  0  0  0  0  0  0  0  0  0
  1  2  1  0
  2  3  2  3
  2  4  1  0
  4  5  2  0
  5  6  1  0
  6  7  2  0
  7  8  1  0
  8  9  1  0
  9 10  2  0
 10 11  1  0
 11 12  2  0
  9 13  1  0
 13 14  2  0
 14 15  1  0
 15 16  2  0
 16 17  1  0
 17 18  1  0
 18 19  1  0
 19 20  1  0
 20 21  1  0
 21 22  1  0
 22 23  1  0
 17 24  2  0
 24 25  1  0
 12  4  1  0
 24 13  1  0
 11  7  1  0
 23 19  1  0
  1 26  1  0
  1 27  1  0
  3 28  1  0
  3 29  1  0
  5 30  1  0
  6 31  1  0
  8 32  1  0
 12 33  1  0
 14 34  1  0
 15 35  1  0
 16 36  1  0
 19 37  1  0
 20 38  1  0
 20 39  1  0
 21 40  1  0
 21 41  1  0
 22 42  1  0
 22 43  1  0
 23 44  1  0
 23 45  1  0
M  CHG  2   3   1  25  -1
M  END
$$$$
