
     RDKit          3D

 26 26  0  0  0  0  0  0  0  0999 V2000
   -2.4772   -0.4895   -1.4633 C   0  0  0  0  0  0  0  0  0  0  0  0
   -1.8499    0.1485   -0.2061 C   0  0  1  0  0  0  0  0  0  0  0  0
   -2.2229    1.5700   -0.1851 N   0  0  0  0  0  0  0  0  0  0  0  0
   -2.4632   -0.5535    0.9898 C   0  0  0  0  0  0  0  0  0  0  0  0
   -3.4830    0.0555    1.7171 O   0  0  0  0  0  0  0  0  0  0  0  0
   -2.0873   -1.7163    1.3028 O   0  0  0  0  0  0  0  0  0  0  0  0
   -0.3149    0.0230   -0.1554 C   0  0  0  0  0  0  0  0  0  0  0  0
    0.3656    0.3647    1.0319 C   0  0  0  0  0  0  0  0  0  0  0  0
    1.7586    0.2963    1.1106 C   0  0  0  0  0  0  0  0  0  0  0  0
    2.5162   -0.1025   -0.0000 C   0  0  0  0  0  0  0  0  0  0  0  0
    1.8518   -0.4259   -1.1934 C   0  0  0  0  0  0  0  0  0  0  0  0
    0.4579   -0.3580   -1.2745 C   0  0  0  0  0  0  0  0  0  0  0  0
    3.9916   -0.1738    0.0875 C   0  0  0  0  0  0  0  0  0  0  0  0
    4.6409    0.1519    1.2756 O   0  0  0  0  0  0  0  0  0  0  0  0
    4.6743   -0.5299   -0.9110 O   0  0  0  0  0  0  0  0  0  0  0  0
   -2.1748    0.0587   -2.3809 H   0  0  0  0  0  0  0  0  0  0  0  0
   -2.1779   -1.5561   -1.5582 H   0  0  0  0  0  0  0  0  0  0  0  0
   -3.5869   -0.4435   -1.4070 H   0  0  0  0  0  0  0  0  0  0  0  0
   -1.7564    2.0605   -0.9837 H   0  0  0  0  0  0  0  0  0  0  0  0
   -1.8706    2.0189    0.6920 H   0  0  0  0  0  0  0  0  0  0  0  0
   -3.9106   -0.4142    2.5062 H   0  0  0  0  0  0  0  0  0  0  0  0
   -0.1855    0.6857    1.9070 H   0  0  0  0  0  0  0  0  0  0  0  0
    2.2411    0.5603    2.0433 H   0  0  0  0  0  0  0  0  0  0  0  0
    2.4100   -0.7292   -2.0705 H   0  0  0  0  0  0  0  0  0  0  0  0
    0.0025   -0.6080   -2.2211 H   0  0  0  0  0  0  0  0  0  0  0  0
    5.6505    0.1064    1.3463 H   0  0  0  0  0  0  0  0  0  0  0  0
  1  2  1  0
  2  3  1  1
  2  4  1  0
  4  5  1  0
  4  6  2  0
  2  7  1  0
  7  8  2  0
  8  9  1  0
  9 10  2  0
 10 11  1  0
 11 12  2  0
 10 13  1  0
 13 14  1  0
 13 15  2  0
 12  7  1  0
  1 16  1  0
  1 17  1  0
  1 18  1  0
  3 19  1  0
  3 20  1  0
  5 21  1  0
  8 22  1  0
  9 23  1  0
 11 24  1  0
 12 25  1  0
 14 26  1  0
M  END
$$$$
