
     RDKit          3D

 37 39  0  0  0  0  0  0  0  0999 V2000
   -2.8454    1.4714   -2.8436 N   0  0  0  0  0  0  0  0  0  0  0  0
   -1.5014    1.0695   -2.4356 C   0  0  0  0  0  0  0  0  0  0  0  0
   -1.3866    1.0290   -0.8960 C   0  0  1  0  0  0  0  0  0  0  0  0
   -2.4241    0.1456   -0.2189 C   0  0  0  0  0  0  0  0  0  0  0  0
   -2.7930   -1.1120   -0.7392 C   0  0  0  0  0  0  0  0  0  0  0  0
   -3.7207   -1.9132   -0.0668 C   0  0  0  0  0  0  0  0  0  0  0  0
   -4.2823   -1.4792    1.1367 C   0  0  0  0  0  0  0  0  0  0  0  0
   -5.4438   -2.4885    1.9787 Cl  0  0  0  0  0  0  0  0  0  0  0  0
   -3.9114   -0.2432    1.6721 C   0  0  0  0  0  0  0  0  0  0  0  0
   -2.9845    0.5613    1.0034 C   0  0  0  0  0  0  0  0  0  0  0  0
    0.0111    0.6401   -0.4499 C   0  0  0  0  0  0  0  0  0  0  0  0
    0.5759   -0.5956   -0.8116 C   0  0  0  0  0  0  0  0  0  0  0  0
    1.8569   -0.9470   -0.3779 C   0  0  0  0  0  0  0  0  0  0  0  0
    2.6049   -0.0740    0.4322 C   0  0  0  0  0  0  0  0  0  0  0  0
    2.0361    1.1590    0.7984 C   0  0  0  0  0  0  0  0  0  0  0  0
    0.7547    1.5097    0.3649 C   0  0  0  0  0  0  0  0  0  0  0  0
    3.9669   -0.4474    0.8938 C   0  0  0  0  0  0  0  0  0  0  0  0
    4.9018    0.3611    1.5167 C   0  0  0  0  0  0  0  0  0  0  0  0
    6.0007   -0.3713    1.7643 N   0  0  0  0  0  0  0  0  0  0  0  0
    5.8207   -1.6089    1.3343 N   0  0  0  0  0  0  0  0  0  0  0  0
    4.5879   -1.6841    0.7973 C   0  0  0  0  0  0  0  0  0  0  0  0
   -2.9811    2.4753   -2.5827 H   0  0  0  0  0  0  0  0  0  0  0  0
   -2.8882    1.4276   -3.8875 H   0  0  0  0  0  0  0  0  0  0  0  0
   -0.7606    1.7972   -2.8382 H   0  0  0  0  0  0  0  0  0  0  0  0
   -1.2632    0.0820   -2.8832 H   0  0  0  0  0  0  0  0  0  0  0  0
   -1.5783    2.0768   -0.5693 H   0  0  0  0  0  0  0  0  0  0  0  0
   -2.3700   -1.4821   -1.6618 H   0  0  0  0  0  0  0  0  0  0  0  0
   -3.9990   -2.8739   -0.4811 H   0  0  0  0  0  0  0  0  0  0  0  0
   -4.3370    0.0938    2.6088 H   0  0  0  0  0  0  0  0  0  0  0  0
   -2.7014    1.5102    1.4422 H   0  0  0  0  0  0  0  0  0  0  0  0
    0.0293   -1.2930   -1.4310 H   0  0  0  0  0  0  0  0  0  0  0  0
    2.2589   -1.9016   -0.6879 H   0  0  0  0  0  0  0  0  0  0  0  0
    2.5716    1.8538    1.4306 H   0  0  0  0  0  0  0  0  0  0  0  0
    0.3427    2.4631    0.6715 H   0  0  0  0  0  0  0  0  0  0  0  0
    4.8036    1.4087    1.7663 H   0  0  0  0  0  0  0  0  0  0  0  0
    6.8739   -0.0310    2.2240 H   0  0  0  0  0  0  0  0  0  0  0  0
    4.1745   -2.5890    0.3745 H   0  0  0  0  0  0  0  0  0  0  0  0
  1  2  1  0
  2  3  1  0
  3  4  1  0
  4  5  2  0
  5  6  1  0
  6  7  2  0
  7  8  1  0
  7  9  1  0
  9 10  2  0
  3 11  1  0
 11 12  2  0
 12 13  1  0
 13 14  2  0
 14 15  1  0
 15 16  2  0
 14 17  1  0
 17 18  2  0
 18 19  1  0
 19 20  1  0
 20 21  2  0
 10  4  1  0
 16 11  1  0
 21 17  1  0
  1 22  1  0
  1 23  1  0
  2 24  1  0
  2 25  1  0
  3 26  1  1
  5 27  1  0
  6 28  1  0
  9 29  1  0
 10 30  1  0
 12 31  1  0
 13 32  1  0
 15 33  1  0
 16 34  1  0
 18 35  1  0
 19 36  1  0
 21 37  1  0
M  END
$$$$
