
     RDKit          3D

 31 32  0  0  0  0  0  0  0  0999 V2000
   -5.1313    1.0128   -0.4015 C   0  0  0  0  0  0  0  0  0  0  0  0
   -3.8174    0.3014   -0.2696 C   0  0  0  0  0  0  0  0  0  0  0  0
   -2.6933    0.7567   -0.9734 C   0  0  0  0  0  0  0  0  0  0  0  0
   -1.4595    0.1170   -0.8229 C   0  0  0  0  0  0  0  0  0  0  0  0
   -1.3244   -0.9749    0.0534 C   0  0  0  0  0  0  0  0  0  0  0  0
   -2.4536   -1.4266    0.7573 C   0  0  0  0  0  0  0  0  0  0  0  0
   -3.6870   -0.7860    0.6061 C   0  0  0  0  0  0  0  0  0  0  0  0
   -0.0247   -1.6727    0.2105 C   0  0  0  0  0  0  0  0  0  0  0  0
   -0.0244   -2.9123    0.4449 O   0  0  0  0  0  0  0  0  0  0  0  0
    1.2749   -0.9650    0.1013 C   0  0  0  0  0  0  0  0  0  0  0  0
    1.4158    0.3562    0.5486 C   0  0  0  0  0  0  0  0  0  0  0  0
    2.6483    1.0261    0.4616 C   0  0  0  0  0  0  0  0  0  0  0  0
    3.7659    0.3517   -0.0876 C   0  0  0  0  0  0  0  0  0  0  0  0
    4.9761    1.0399   -0.2156 O   0  0  0  0  0  0  0  0  0  0  0  0
    3.6322   -0.9944   -0.5086 C   0  0  0  0  0  0  0  0  0  0  0  0
    4.6976   -1.7338   -1.0283 O   0  0  0  0  0  0  0  0  0  0  0  0
    2.3940   -1.6338   -0.4083 C   0  0  0  0  0  0  0  0  0  0  0  0
    2.7430    2.3885    0.9292 N   0  0  0  0  0  4  0  0  0  0  0  0
    1.6027    3.1124    1.1938 O   0  0  0  0  0  1  0  0  0  0  0  0
    3.8500    2.9193    1.1545 O   0  0  0  0  0  0  0  0  0  0  0  0
   -5.2386    1.4530   -1.4159 H   0  0  0  0  0  0  0  0  0  0  0  0
   -5.9759    0.3091   -0.2420 H   0  0  0  0  0  0  0  0  0  0  0  0
   -5.1888    1.8246    0.3534 H   0  0  0  0  0  0  0  0  0  0  0  0
   -2.7728    1.6033   -1.6442 H   0  0  0  0  0  0  0  0  0  0  0  0
   -0.6146    0.4700   -1.4005 H   0  0  0  0  0  0  0  0  0  0  0  0
   -2.3782   -2.2666    1.4370 H   0  0  0  0  0  0  0  0  0  0  0  0
   -4.5405   -1.1393    1.1717 H   0  0  0  0  0  0  0  0  0  0  0  0
    0.5648    0.8595    0.9894 H   0  0  0  0  0  0  0  0  0  0  0  0
    5.8098    0.6563   -0.6357 H   0  0  0  0  0  0  0  0  0  0  0  0
    5.6439   -1.3914   -1.1068 H   0  0  0  0  0  0  0  0  0  0  0  0
    2.3059   -2.6609   -0.7424 H   0  0  0  0  0  0  0  0  0  0  0  0
  1  2  1  0
  2  3  2  0
  3  4  1  0
  4  5  2  0
  5  6  1  0
  6  7  2  0
  5  8  1  0
  8  9  2  0
  8 10  1  0
 10 11  2  0
 11 12  1  0
 12 13  2  0
 13 14  1  0
 13 15  1  0
 15 16  1  0
 15 17  2  0
 12 18  1  0
 18 19  1  0
 18 20  2  0
  7  2  1  0
 17 10  1  0
  1 21  1  0
  1 22  1  0
  1 23  1  0
  3 24  1  0
  4 25  1  0
  6 26  1  0
  7 27  1  0
 11 28  1  0
 14 29  1  0
 16 30  1  0
 17 31  1  0
M  CHG  2  18   1  19  -1
M  END
$$$$
