
     RDKit          3D

 36 36  0  0  0  0  0  0  0  0999 V2000
   -4.5996    1.3426    0.5273 C   0  0  0  0  0  0  0  0  0  0  0  0
   -3.8721    1.4244   -0.8144 C   0  0  0  0  0  0  0  0  0  0  0  0
   -3.8988    0.0968   -1.5896 C   0  0  0  0  0  0  0  0  0  0  0  0
   -3.0908   -1.0434   -0.9408 C   0  0  0  0  0  0  0  0  0  0  0  0
   -1.5702   -0.7811   -0.9043 C   0  0  0  0  0  0  0  0  0  0  0  0
   -1.0782   -0.4020    0.4995 C   0  0  0  0  0  0  0  0  0  0  0  0
    0.3971   -0.1043    0.4803 C   0  0  0  0  0  0  0  0  0  0  0  0
    0.8523    1.1919    0.1993 C   0  0  0  0  0  0  0  0  0  0  0  0
    2.2222    1.4635    0.1472 C   0  0  0  0  0  0  0  0  0  0  0  0
    3.1641    0.4434    0.3733 C   0  0  0  0  0  0  0  0  0  0  0  0
    2.7012   -0.8614    0.6291 C   0  0  0  0  0  0  0  0  0  0  0  0
    1.3305   -1.1315    0.6799 C   0  0  0  0  0  0  0  0  0  0  0  0
    4.6154    0.7502    0.3075 C   0  0  0  0  0  0  0  0  0  0  0  0
    5.0015    1.7493   -0.3602 O   0  0  0  0  0  0  0  0  0  0  0  0
    5.6135   -0.0716    1.0285 C   0  0  0  0  0  0  0  0  0  0  0  0
    6.9251    0.1015    0.8722 C   0  0  0  0  0  0  0  0  0  0  0  0
   -5.6398    0.9809    0.3827 H   0  0  0  0  0  0  0  0  0  0  0  0
   -4.6379    2.3523    0.9876 H   0  0  0  0  0  0  0  0  0  0  0  0
   -4.0688    0.6652    1.2267 H   0  0  0  0  0  0  0  0  0  0  0  0
   -4.3796    2.1955   -1.4336 H   0  0  0  0  0  0  0  0  0  0  0  0
   -2.8285    1.7693   -0.6618 H   0  0  0  0  0  0  0  0  0  0  0  0
   -3.5077    0.2759   -2.6150 H   0  0  0  0  0  0  0  0  0  0  0  0
   -4.9543   -0.2339   -1.7037 H   0  0  0  0  0  0  0  0  0  0  0  0
   -3.4894   -1.2791    0.0689 H   0  0  0  0  0  0  0  0  0  0  0  0
   -3.2662   -1.9542   -1.5545 H   0  0  0  0  0  0  0  0  0  0  0  0
   -1.2892    0.0112   -1.6330 H   0  0  0  0  0  0  0  0  0  0  0  0
   -1.0421   -1.7094   -1.2163 H   0  0  0  0  0  0  0  0  0  0  0  0
   -1.2837   -1.2380    1.2039 H   0  0  0  0  0  0  0  0  0  0  0  0
   -1.6283    0.4840    0.8783 H   0  0  0  0  0  0  0  0  0  0  0  0
    0.1454    1.9926    0.0189 H   0  0  0  0  0  0  0  0  0  0  0  0
    2.5452    2.4758   -0.0628 H   0  0  0  0  0  0  0  0  0  0  0  0
    3.3919   -1.6828    0.7638 H   0  0  0  0  0  0  0  0  0  0  0  0
    0.9966   -2.1446    0.8673 H   0  0  0  0  0  0  0  0  0  0  0  0
    5.2808   -0.8295    1.7253 H   0  0  0  0  0  0  0  0  0  0  0  0
    7.3223    0.8472    0.1951 H   0  0  0  0  0  0  0  0  0  0  0  0
    7.6203   -0.5148    1.4274 H   0  0  0  0  0  0  0  0  0  0  0  0
  1  2  1  0
  2  3  1  0
  3  4  1  0
  4  5  1  0
  5  6  1  0
  6  7  1  0
  7  8  2  0
  8  9  1  0
  9 10  2  0
 10 11  1  0
 11 12  2  0
 10 13  1  0
 13 14  2  0
 13 15  1  0
 15 16  2  3
 12  7  1  0
  1 17  1  0
  1 18  1  0
  1 19  1  0
  2 20  1  0
  2 21  1  0
  3 22  1  0
  3 23  1  0
  4 24  1  0
  4 25  1  0
  5 26  1  0
  5 27  1  0
  6 28  1  0
  6 29  1  0
  8 30  1  0
  9 31  1  0
 11 32  1  0
 12 33  1  0
 15 34  1  0
 16 35  1  0
 16 36  1  0
M  END
$$$$
