
     RDKit          3D

 18 18  0  0  0  0  0  0  0  0999 V2000
    2.7656    0.8886    1.1029 O   0  0  0  0  0  0  0  0  0  0  0  0
    2.4066    0.1857   -0.0429 C   0  0  0  0  0  0  0  0  0  0  0  0
    2.8412    0.5502   -1.1681 O   0  0  0  0  0  0  0  0  0  0  0  0
    1.4673   -0.9720    0.0582 C   0  0  0  0  0  0  0  0  0  0  0  0
    0.0464   -0.4892   -0.0245 C   0  0  0  0  0  0  0  0  0  0  0  0
   -0.6012   -0.4105   -1.2628 C   0  0  0  0  0  0  0  0  0  0  0  0
   -1.9090    0.0721   -1.3050 C   0  0  0  0  0  0  0  0  0  0  0  0
   -2.5162    0.1475   -2.4064 O   0  0  0  0  0  0  0  0  0  0  0  0
   -2.5264    0.4624   -0.1575 N   0  0  0  0  0  0  0  0  0  0  0  0
   -1.8805    0.3936    1.0387 C   0  0  0  0  0  0  0  0  0  0  0  0
   -2.4653    0.7660    2.0913 O   0  0  0  0  0  0  0  0  0  0  0  0
   -0.6034   -0.0745    1.1003 N   0  0  0  0  0  0  0  0  0  0  0  0
    3.3879    1.6861    1.0494 H   0  0  0  0  0  0  0  0  0  0  0  0
    1.6322   -1.4973    1.0233 H   0  0  0  0  0  0  0  0  0  0  0  0
    1.6786   -1.7022   -0.7536 H   0  0  0  0  0  0  0  0  0  0  0  0
   -0.0991   -0.7162   -2.1733 H   0  0  0  0  0  0  0  0  0  0  0  0
   -3.5071    0.8235   -0.1955 H   0  0  0  0  0  0  0  0  0  0  0  0
   -0.1174   -0.1138    2.0254 H   0  0  0  0  0  0  0  0  0  0  0  0
  1  2  1  0
  2  3  2  0
  2  4  1  0
  4  5  1  0
  5  6  2  0
  6  7  1  0
  7  8  2  0
  7  9  1  0
  9 10  1  0
 10 11  2  0
 10 12  1  0
 12  5  1  0
  1 13  1  0
  4 14  1  0
  4 15  1  0
  6 16  1  0
  9 17  1  0
 12 18  1  0
M  END
$$$$
