
     RDKit          3D

 37 39  0  0  0  0  0  0  0  0999 V2000
    6.7312    0.5373   -2.5872 N   0  0  0  0  0  0  0  0  0  0  0  0
    5.6473    0.6916   -2.2121 C   0  0  0  0  0  0  0  0  0  0  0  0
    4.2965    0.8844   -1.7440 C   0  0  0  0  0  0  0  0  0  0  0  0
    4.0513    1.8629   -0.7772 C   0  0  0  0  0  0  0  0  0  0  0  0
    2.7626    2.0590   -0.2866 C   0  0  0  0  0  0  0  0  0  0  0  0
    1.6982    1.2807   -0.7505 C   0  0  0  0  0  0  0  0  0  0  0  0
    0.4020    1.5001   -0.1782 N   0  0  0  0  0  0  0  0  0  0  0  0
   -0.2558    0.5853    0.4663 C   0  0  0  0  0  0  0  0  0  0  0  0
    0.2213   -0.6858    0.7056 O   0  0  0  0  0  0  0  0  0  0  0  0
   -0.7812   -1.4581    1.3562 C   0  0  1  0  0  0  0  0  0  0  0  0
   -0.2171   -2.0724    2.6406 C   0  0  0  0  0  0  0  0  0  0  0  0
   -1.2076   -2.7803    3.2976 F   0  0  0  0  0  0  0  0  0  0  0  0
    0.2676   -1.0819    3.4773 F   0  0  0  0  0  0  0  0  0  0  0  0
    0.8154   -2.9367    2.3246 F   0  0  0  0  0  0  0  0  0  0  0  0
   -1.9471   -0.4520    1.6279 C   0  0  2  0  0  0  0  0  0  0  0  0
   -3.2858   -0.8194    0.9790 C   0  0  1  0  0  0  0  0  0  0  0  0
   -4.1415   -1.4164    1.9168 O   0  0  0  0  0  0  0  0  0  0  0  0
   -3.8493    0.5172    0.4792 C   0  0  0  0  0  0  0  0  0  0  0  0
   -2.6308    1.4014    0.2278 C   0  0  0  0  0  0  0  0  0  0  0  0
   -1.5545    0.7868    0.9855 N   0  0  0  0  0  0  0  0  0  0  0  0
    1.9157    0.3297   -1.7805 C   0  0  0  0  0  0  0  0  0  0  0  0
    0.7655   -0.4527   -2.3701 C   0  0  0  0  0  0  0  0  0  0  0  0
    3.2336    0.1102   -2.2489 C   0  0  0  0  0  0  0  0  0  0  0  0
    3.5628   -1.1352   -3.4625 Cl  0  0  0  0  0  0  0  0  0  0  0  0
    4.8627    2.4686   -0.3908 H   0  0  0  0  0  0  0  0  0  0  0  0
    2.5933    2.8070    0.4781 H   0  0  0  0  0  0  0  0  0  0  0  0
   -1.0965   -2.2773    0.6742 H   0  0  0  0  0  0  0  0  0  0  0  0
   -2.0814   -0.2555    2.7157 H   0  0  0  0  0  0  0  0  0  0  0  0
   -3.1324   -1.4936    0.1045 H   0  0  0  0  0  0  0  0  0  0  0  0
   -4.9213   -1.7589    1.4070 H   0  0  0  0  0  0  0  0  0  0  0  0
   -4.4851    0.9818    1.2654 H   0  0  0  0  0  0  0  0  0  0  0  0
   -4.4509    0.3817   -0.4457 H   0  0  0  0  0  0  0  0  0  0  0  0
   -2.8062    2.4386    0.5844 H   0  0  0  0  0  0  0  0  0  0  0  0
   -2.3864    1.4122   -0.8578 H   0  0  0  0  0  0  0  0  0  0  0  0
   -0.2068    0.0572   -2.2116 H   0  0  0  0  0  0  0  0  0  0  0  0
    0.7274   -1.4632   -1.9126 H   0  0  0  0  0  0  0  0  0  0  0  0
    0.8831   -0.5544   -3.4689 H   0  0  0  0  0  0  0  0  0  0  0  0
  1  2  3  0
  2  3  1  0
  3  4  2  0
  4  5  1  0
  5  6  2  0
  6  7  1  0
  7  8  2  0
  8  9  1  0
  9 10  1  0
 10 11  1  0
 11 12  1  0
 11 13  1  0
 11 14  1  0
 10 15  1  0
 15 16  1  0
 16 17  1  0
 16 18  1  0
 18 19  1  0
 19 20  1  0
  6 21  1  0
 21 22  1  0
 21 23  2  0
 23 24  1  0
 23  3  1  0
 20  8  1  0
 20 15  1  0
  4 25  1  0
  5 26  1  0
 10 27  1  6
 15 28  1  1
 16 29  1  6
 17 30  1  0
 18 31  1  0
 18 32  1  0
 19 33  1  0
 19 34  1  0
 22 35  1  0
 22 36  1  0
 22 37  1  0
M  END
$$$$
