
     RDKit          3D

 58 62  0  0  0  0  0  0  0  0999 V2000
   -6.2948    4.5096   -2.3062 O   0  0  0  0  0  0  0  0  0  0  0  0
   -6.2663    3.5126   -1.5363 C   0  0  0  0  0  0  0  0  0  0  0  0
   -5.3698    2.5090   -1.7537 N   0  0  0  0  0  0  0  0  0  0  0  0
   -5.3131    1.4153   -0.9378 C   0  0  0  0  0  0  0  0  0  0  0  0
   -4.3828    0.3926   -1.1775 C   0  0  0  0  0  0  0  0  0  0  0  0
   -4.3187   -0.7274   -0.3395 C   0  0  0  0  0  0  0  0  0  0  0  0
   -3.3629   -1.7142   -0.6313 O   0  0  0  0  0  0  0  0  0  0  0  0
   -3.0356   -2.8284    0.2007 C   0  0  0  0  0  0  0  0  0  0  0  0
   -2.2361   -2.3954    1.4403 C   0  0  0  0  0  0  0  0  0  0  0  0
   -1.0125   -1.5196    1.1177 C   0  0  0  0  0  0  0  0  0  0  0  0
    0.0975   -2.2906    0.3831 C   0  0  0  0  0  0  0  0  0  0  0  0
    1.2537   -1.4140    0.0941 N   0  0  0  0  0  0  0  0  0  0  0  0
    2.1355   -2.0358   -0.9123 C   0  0  0  0  0  0  0  0  0  0  0  0
    3.1541   -1.0011   -1.3931 C   0  0  0  0  0  0  0  0  0  0  0  0
    3.7282   -0.2775   -0.2566 N   0  0  0  0  0  0  0  0  0  0  0  0
    3.4882   -0.7491    1.1093 C   0  0  0  0  0  0  0  0  0  0  0  0
    1.9906   -1.0442    1.3341 C   0  0  0  0  0  0  0  0  0  0  0  0
    4.5702    0.8597   -0.4953 C   0  0  0  0  0  0  0  0  0  0  0  0
    5.9511    0.8207   -0.2347 C   0  0  0  0  0  0  0  0  0  0  0  0
    6.6926   -0.2781    0.2237 C   0  0  0  0  0  0  0  0  0  0  0  0
    8.0485    0.0060    0.3714 C   0  0  0  0  0  0  0  0  0  0  0  0
    8.3295    1.6111   -0.0751 S   0  0  0  0  0  0  0  0  0  0  0  0
    6.7307    1.9477   -0.4544 C   0  0  0  0  0  0  0  0  0  0  0  0
    6.1962    3.1391   -0.9365 C   0  0  0  0  0  0  0  0  0  0  0  0
    4.8217    3.1871   -1.2079 C   0  0  0  0  0  0  0  0  0  0  0  0
    4.0137    2.0556   -0.9908 C   0  0  0  0  0  0  0  0  0  0  0  0
   -5.2090   -0.8266    0.7476 C   0  0  0  0  0  0  0  0  0  0  0  0
   -6.1397    0.1863    0.9949 C   0  0  0  0  0  0  0  0  0  0  0  0
   -6.1972    1.3092    0.1591 C   0  0  0  0  0  0  0  0  0  0  0  0
   -7.1211    2.3351    0.3894 C   0  0  0  0  0  0  0  0  0  0  0  0
   -7.1563    3.4407   -0.4604 C   0  0  0  0  0  0  0  0  0  0  0  0
   -4.7145    2.5864   -2.5655 H   0  0  0  0  0  0  0  0  0  0  0  0
   -3.7000    0.4663   -2.0154 H   0  0  0  0  0  0  0  0  0  0  0  0
   -3.9557   -3.3711    0.5039 H   0  0  0  0  0  0  0  0  0  0  0  0
   -2.4349   -3.5473   -0.3932 H   0  0  0  0  0  0  0  0  0  0  0  0
   -2.9031   -1.8226    2.1182 H   0  0  0  0  0  0  0  0  0  0  0  0
   -1.9098   -3.3008    1.9966 H   0  0  0  0  0  0  0  0  0  0  0  0
   -0.6174   -1.1388    2.0831 H   0  0  0  0  0  0  0  0  0  0  0  0
   -1.3188   -0.6377    0.5145 H   0  0  0  0  0  0  0  0  0  0  0  0
    0.4121   -3.1777    0.9782 H   0  0  0  0  0  0  0  0  0  0  0  0
   -0.3302   -2.6642   -0.5718 H   0  0  0  0  0  0  0  0  0  0  0  0
    2.6579   -2.9207   -0.4824 H   0  0  0  0  0  0  0  0  0  0  0  0
    1.5524   -2.3743   -1.7973 H   0  0  0  0  0  0  0  0  0  0  0  0
    3.9633   -1.5038   -1.9650 H   0  0  0  0  0  0  0  0  0  0  0  0
    2.6383   -0.2819   -2.0660 H   0  0  0  0  0  0  0  0  0  0  0  0
    4.0686   -1.6824    1.2729 H   0  0  0  0  0  0  0  0  0  0  0  0
    3.8370    0.0006    1.8538 H   0  0  0  0  0  0  0  0  0  0  0  0
    1.9110   -1.8373    2.1118 H   0  0  0  0  0  0  0  0  0  0  0  0
    1.5234   -0.1255    1.7492 H   0  0  0  0  0  0  0  0  0  0  0  0
    6.2730   -1.2526    0.4306 H   0  0  0  0  0  0  0  0  0  0  0  0
    8.8008   -0.6938    0.7092 H   0  0  0  0  0  0  0  0  0  0  0  0
    6.8245    4.0044   -1.1032 H   0  0  0  0  0  0  0  0  0  0  0  0
    4.3795    4.1001   -1.5848 H   0  0  0  0  0  0  0  0  0  0  0  0
    2.9523    2.1137   -1.1962 H   0  0  0  0  0  0  0  0  0  0  0  0
   -5.1982   -1.6829    1.4060 H   0  0  0  0  0  0  0  0  0  0  0  0
   -6.8148    0.0908    1.8371 H   0  0  0  0  0  0  0  0  0  0  0  0
   -7.8123    2.2821    1.2222 H   0  0  0  0  0  0  0  0  0  0  0  0
   -7.8706    4.2355   -0.2833 H   0  0  0  0  0  0  0  0  0  0  0  0
  1  2  2  0
  2  3  1  0
  3  4  1  0
  4  5  2  0
  5  6  1  0
  6  7  1  0
  7  8  1  0
  8  9  1  0
  9 10  1  0
 10 11  1  0
 11 12  1  0
 12 13  1  0
 13 14  1  0
 14 15  1  0
 15 16  1  0
 16 17  1  0
 15 18  1  0
 18 19  2  0
 19 20  1  0
 20 21  2  0
 21 22  1  0
 22 23  1  0
 23 24  2  0
 24 25  1  0
 25 26  2  0
  6 27  2  0
 27 28  1  0
 28 29  2  0
 29 30  1  0
 30 31  2  0
 31  2  1  0
 29  4  1  0
 17 12  1  0
 26 18  1  0
 23 19  1  0
  3 32  1  0
  5 33  1  0
  8 34  1  0
  8 35  1  0
  9 36  1  0
  9 37  1  0
 10 38  1  0
 10 39  1  0
 11 40  1  0
 11 41  1  0
 13 42  1  0
 13 43  1  0
 14 44  1  0
 14 45  1  0
 16 46  1  0
 16 47  1  0
 17 48  1  0
 17 49  1  0
 20 50  1  0
 21 51  1  0
 24 52  1  0
 25 53  1  0
 26 54  1  0
 27 55  1  0
 28 56  1  0
 30 57  1  0
 31 58  1  0
M  END
$$$$
