
     RDKit          3D

 49 53  0  0  0  0  0  0  0  0999 V2000
    4.8416    2.9421   -0.5404 N   0  0  0  0  0  0  0  0  0  0  0  0
    4.1588    2.3003   -1.6612 C   0  0  0  0  0  0  0  0  0  0  0  0
    3.3826    1.0639   -1.1942 C   0  0  0  0  0  0  0  0  0  0  0  0
    2.1645    1.4273   -0.3375 C   0  0  0  0  0  0  0  0  0  0  0  0
    1.4092    0.2206   -0.0007 N   0  0  0  0  0  0  0  0  0  0  0  0
    0.3357   -0.2542   -0.6742 C   0  0  0  0  0  0  0  0  0  0  0  0
   -0.1061   -1.4432   -0.1007 C   0  0  0  0  0  0  0  0  0  0  0  0
    0.7510   -1.6932    0.9561 C   0  0  0  0  0  0  0  0  0  0  0  0
    1.6628   -0.6654    0.9853 C   0  0  0  0  0  0  0  0  0  0  0  0
    2.6718   -0.6133    1.9517 C   0  0  0  0  0  0  0  0  0  0  0  0
    2.7204   -1.6403    2.9107 C   0  0  0  0  0  0  0  0  0  0  0  0
    1.7686   -2.6820    2.8926 C   0  0  0  0  0  0  0  0  0  0  0  0
    0.7645   -2.7128    1.9093 C   0  0  0  0  0  0  0  0  0  0  0  0
   -1.2573   -2.2545   -0.5411 C   0  0  0  0  0  0  0  0  0  0  0  0
   -2.4401   -1.7959   -0.9723 C   0  0  0  0  0  0  0  0  0  0  0  0
   -3.2047   -2.9406   -1.4707 C   0  0  0  0  0  0  0  0  0  0  0  0
   -4.3634   -2.8887   -1.9608 O   0  0  0  0  0  0  0  0  0  0  0  0
   -2.4673   -4.1434   -1.3248 N   0  0  0  0  0  0  0  0  0  0  0  0
   -1.2441   -3.7050   -0.7550 C   0  0  0  0  0  0  0  0  0  0  0  0
   -0.2674   -4.4689   -0.5367 O   0  0  0  0  0  0  0  0  0  0  0  0
   -2.9018   -0.3950   -0.9865 C   0  0  0  0  0  0  0  0  0  0  0  0
   -3.5430    0.2425   -2.0438 C   0  0  0  0  0  0  0  0  0  0  0  0
   -3.8117    1.5293   -1.7271 N   0  0  0  0  0  0  0  0  0  0  0  0
   -3.3601    1.7065   -0.4736 C   0  0  0  0  0  0  0  0  0  0  0  0
   -2.8058    0.5517    0.0189 C   0  0  0  0  0  0  0  0  0  0  0  0
   -2.3218    0.4735    1.3268 C   0  0  0  0  0  0  0  0  0  0  0  0
   -2.3772    1.6336    2.1194 C   0  0  0  0  0  0  0  0  0  0  0  0
   -2.9264    2.8275    1.6030 C   0  0  0  0  0  0  0  0  0  0  0  0
   -3.4333    2.8696    0.2917 C   0  0  0  0  0  0  0  0  0  0  0  0
    4.1439    3.5167   -0.0147 H   0  0  0  0  0  0  0  0  0  0  0  0
    5.5337    3.6194   -0.9352 H   0  0  0  0  0  0  0  0  0  0  0  0
    4.9165    1.9726   -2.4067 H   0  0  0  0  0  0  0  0  0  0  0  0
    3.4770    3.0220   -2.1649 H   0  0  0  0  0  0  0  0  0  0  0  0
    4.0608    0.3950   -0.6208 H   0  0  0  0  0  0  0  0  0  0  0  0
    3.0342    0.5077   -2.0918 H   0  0  0  0  0  0  0  0  0  0  0  0
    2.4827    1.9374    0.5959 H   0  0  0  0  0  0  0  0  0  0  0  0
    1.5095    2.1312   -0.8969 H   0  0  0  0  0  0  0  0  0  0  0  0
   -0.1002    0.2293   -1.5395 H   0  0  0  0  0  0  0  0  0  0  0  0
    3.3952    0.1907    1.9729 H   0  0  0  0  0  0  0  0  0  0  0  0
    3.4882   -1.6270    3.6733 H   0  0  0  0  0  0  0  0  0  0  0  0
    1.8085   -3.4597    3.6441 H   0  0  0  0  0  0  0  0  0  0  0  0
    0.0213   -3.4984    1.9077 H   0  0  0  0  0  0  0  0  0  0  0  0
   -2.7356   -5.1080   -1.6208 H   0  0  0  0  0  0  0  0  0  0  0  0
   -3.7851   -0.2063   -2.9984 H   0  0  0  0  0  0  0  0  0  0  0  0
   -4.2819    2.2369   -2.3342 H   0  0  0  0  0  0  0  0  0  0  0  0
   -1.9270   -0.4486    1.7305 H   0  0  0  0  0  0  0  0  0  0  0  0
   -2.0035    1.6085    3.1347 H   0  0  0  0  0  0  0  0  0  0  0  0
   -2.9676    3.7131    2.2237 H   0  0  0  0  0  0  0  0  0  0  0  0
   -3.8707    3.7756   -0.1073 H   0  0  0  0  0  0  0  0  0  0  0  0
  1  2  1  0
  2  3  1  0
  3  4  1  0
  4  5  1  0
  5  6  1  0
  6  7  2  0
  7  8  1  0
  8  9  2  0
  9 10  1  0
 10 11  2  0
 11 12  1  0
 12 13  2  0
  7 14  1  0
 14 15  2  0
 15 16  1  0
 16 17  2  0
 16 18  1  0
 18 19  1  0
 19 20  2  0
 15 21  1  0
 21 22  2  0
 22 23  1  0
 23 24  1  0
 24 25  2  0
 25 26  1  0
 26 27  2  0
 27 28  1  0
 28 29  2  0
  9  5  1  0
 19 14  1  0
 25 21  1  0
 13  8  1  0
 29 24  1  0
  1 30  1  0
  1 31  1  0
  2 32  1  0
  2 33  1  0
  3 34  1  0
  3 35  1  0
  4 36  1  0
  4 37  1  0
  6 38  1  0
 10 39  1  0
 11 40  1  0
 12 41  1  0
 13 42  1  0
 18 43  1  0
 22 44  1  0
 23 45  1  0
 26 46  1  0
 27 47  1  0
 28 48  1  0
 29 49  1  0
M  END
$$$$
