
     RDKit          3D

 57 59  0  0  0  0  0  0  0  0999 V2000
   -9.2469    0.8402   -0.6662 N   0  0  0  0  0  0  0  0  0  0  0  0
   -7.8450    0.6775   -0.4512 C   0  0  0  0  0  0  0  0  0  0  0  0
   -7.0014    1.7111   -0.7026 N   0  0  0  0  0  0  0  0  0  0  0  0
   -5.6645    1.5869   -0.5103 C   0  0  0  0  0  0  0  0  0  0  0  0
   -5.1275    0.3878   -0.0269 C   0  0  0  0  0  0  0  0  0  0  0  0
   -3.6981    0.3259    0.2010 N   0  0  0  0  0  0  0  0  0  0  0  0
   -3.1043   -0.5536    1.2194 C   0  0  0  0  0  0  0  0  0  0  0  0
   -3.7470   -0.3583    2.4487 O   0  0  0  0  0  0  0  0  0  0  0  0
   -2.8282    1.2525   -0.5524 C   0  0  1  0  0  0  0  0  0  0  0  0
   -2.4750    0.6468   -1.9214 C   0  0  0  0  0  0  0  0  0  0  0  0
   -1.8223   -0.6552   -1.7701 N   0  0  0  0  0  0  0  0  0  0  0  0
   -0.5041   -0.8523   -1.2230 C   0  0  0  0  0  0  0  0  0  0  0  0
   -0.1027   -2.1457   -0.8594 C   0  0  0  0  0  0  0  0  0  0  0  0
    1.1655   -2.3726   -0.3185 C   0  0  0  0  0  0  0  0  0  0  0  0
    2.0605   -1.3070   -0.1262 C   0  0  0  0  0  0  0  0  0  0  0  0
    1.6674   -0.0132   -0.5099 C   0  0  0  0  0  0  0  0  0  0  0  0
    0.3989    0.2128   -1.0522 C   0  0  0  0  0  0  0  0  0  0  0  0
    3.4058   -1.5594    0.4424 C   0  0  0  0  0  0  0  0  0  0  0  0
    3.9111   -2.7117    0.3485 O   0  0  0  0  0  0  0  0  0  0  0  0
    4.1348   -0.5164    1.1108 N   0  0  0  0  0  0  0  0  0  0  0  0
    5.5697   -0.6350    1.4039 C   0  0  1  0  0  0  0  0  0  0  0  0
    6.4108   -0.5504    0.1129 C   0  0  0  0  0  0  0  0  0  0  0  0
    6.1608    0.7297   -0.6995 C   0  0  0  0  0  0  0  0  0  0  0  0
    6.9631    0.7092   -1.9618 C   0  0  0  0  0  0  0  0  0  0  0  0
    8.2679    1.1922   -1.9613 O   0  0  0  0  0  0  0  0  0  0  0  0
    6.4729    0.2188   -3.0140 O   0  0  0  0  0  0  0  0  0  0  0  0
    6.0126    0.3898    2.4169 C   0  0  0  0  0  0  0  0  0  0  0  0
    6.9333    0.0312    3.3966 O   0  0  0  0  0  0  0  0  0  0  0  0
    5.5912    1.5770    2.3618 O   0  0  0  0  0  0  0  0  0  0  0  0
   -3.5062    2.5881   -0.7534 C   0  0  0  0  0  0  0  0  0  0  0  0
   -4.8010    2.6955   -0.7784 N   0  0  0  0  0  0  0  0  0  0  0  0
   -6.0168   -0.6807    0.2113 C   0  0  0  0  0  0  0  0  0  0  0  0
   -5.5976   -1.8016    0.6034 O   0  0  0  0  0  0  0  0  0  0  0  0
   -7.3509   -0.5090   -0.0018 N   0  0  0  0  0  0  0  0  0  0  0  0
   -9.9103    0.0557   -0.4800 H   0  0  0  0  0  0  0  0  0  0  0  0
   -9.6248    1.7497   -1.0130 H   0  0  0  0  0  0  0  0  0  0  0  0
   -3.1879   -1.6135    0.8966 H   0  0  0  0  0  0  0  0  0  0  0  0
   -2.0187   -0.3436    1.3421 H   0  0  0  0  0  0  0  0  0  0  0  0
   -3.3409   -1.0088    3.0785 H   0  0  0  0  0  0  0  0  0  0  0  0
   -1.8926    1.4494    0.0126 H   0  0  0  0  0  0  0  0  0  0  0  0
   -1.8241    1.3329   -2.5040 H   0  0  0  0  0  0  0  0  0  0  0  0
   -3.4099    0.5119   -2.5098 H   0  0  0  0  0  0  0  0  0  0  0  0
   -2.3764   -1.4982   -2.0452 H   0  0  0  0  0  0  0  0  0  0  0  0
   -0.7792   -2.9816   -0.9870 H   0  0  0  0  0  0  0  0  0  0  0  0
    1.4416   -3.3820   -0.0393 H   0  0  0  0  0  0  0  0  0  0  0  0
    2.3453    0.8250   -0.4173 H   0  0  0  0  0  0  0  0  0  0  0  0
    0.1390    1.2202   -1.3440 H   0  0  0  0  0  0  0  0  0  0  0  0
    3.6172    0.3393    1.4126 H   0  0  0  0  0  0  0  0  0  0  0  0
    5.7510   -1.6328    1.8613 H   0  0  0  0  0  0  0  0  0  0  0  0
    7.4900   -0.6154    0.3767 H   0  0  0  0  0  0  0  0  0  0  0  0
    6.1759   -1.4324   -0.5225 H   0  0  0  0  0  0  0  0  0  0  0  0
    6.4543    1.6222   -0.1085 H   0  0  0  0  0  0  0  0  0  0  0  0
    5.0831    0.8203   -0.9555 H   0  0  0  0  0  0  0  0  0  0  0  0
    8.8300    1.1704   -2.8037 H   0  0  0  0  0  0  0  0  0  0  0  0
    7.2579    0.7076    4.0773 H   0  0  0  0  0  0  0  0  0  0  0  0
   -2.9016    3.4568   -0.9790 H   0  0  0  0  0  0  0  0  0  0  0  0
   -8.0057   -1.3037    0.1794 H   0  0  0  0  0  0  0  0  0  0  0  0
  1  2  1  0
  2  3  2  0
  3  4  1  0
  4  5  2  0
  5  6  1  0
  6  7  1  0
  7  8  1  0
  6  9  1  0
  9 10  1  0
 10 11  1  0
 11 12  1  0
 12 13  2  0
 13 14  1  0
 14 15  2  0
 15 16  1  0
 16 17  2  0
 15 18  1  0
 18 19  2  0
 18 20  1  0
 20 21  1  0
 21 22  1  0
 22 23  1  0
 23 24  1  0
 24 25  1  0
 24 26  2  0
 21 27  1  0
 27 28  1  0
 27 29  2  0
  9 30  1  0
 30 31  2  0
  5 32  1  0
 32 33  2  0
 32 34  1  0
 34  2  1  0
 31  4  1  0
 17 12  1  0
  1 35  1  0
  1 36  1  0
  7 37  1  0
  7 38  1  0
  8 39  1  0
  9 40  1  1
 10 41  1  0
 10 42  1  0
 11 43  1  0
 13 44  1  0
 14 45  1  0
 16 46  1  0
 17 47  1  0
 20 48  1  0
 21 49  1  1
 22 50  1  0
 22 51  1  0
 23 52  1  0
 23 53  1  0
 25 54  1  0
 28 55  1  0
 30 56  1  0
 34 57  1  0
M  END
$$$$
