
     RDKit          3D

 31 33  0  0  0  0  0  0  0  0999 V2000
   -1.4581   -2.2399    1.7943 O   0  0  0  0  0  0  0  0  0  0  0  0
   -0.8444   -2.7156    0.6257 C   0  0  0  0  0  0  0  0  0  0  0  0
    0.3288   -1.9136    0.2935 N   0  0  0  0  0  0  0  0  0  0  0  0
    0.3465   -0.6305    0.0692 C   0  0  0  0  0  0  0  0  0  0  0  0
    1.6559    0.0012   -0.2211 C   0  0  0  0  0  0  0  0  0  0  0  0
    2.7538   -0.2919    0.6077 C   0  0  0  0  0  0  0  0  0  0  0  0
    3.9968    0.3016    0.3753 C   0  0  0  0  0  0  0  0  0  0  0  0
    4.1610    1.1872   -0.6903 C   0  0  0  0  0  0  0  0  0  0  0  0
    3.0846    1.4756   -1.5317 C   0  0  0  0  0  0  0  0  0  0  0  0
    1.8333    0.8871   -1.3094 C   0  0  0  0  0  0  0  0  0  0  0  0
    0.5408    1.2340   -2.4546 Cl  0  0  0  0  0  0  0  0  0  0  0  0
   -0.8779    0.2142    0.1936 C   0  0  0  0  0  0  0  0  0  0  0  0
   -2.1351   -0.1725   -0.3426 C   0  0  0  0  0  0  0  0  0  0  0  0
   -2.3395   -1.4357   -0.9976 N   0  0  0  0  0  0  0  0  0  0  0  0
   -1.8103   -2.6762   -0.5154 C   0  0  0  0  0  0  0  0  0  0  0  0
   -2.1640   -3.7542   -1.0641 O   0  0  0  0  0  0  0  0  0  0  0  0
   -3.2157    0.7217   -0.2774 C   0  0  0  0  0  0  0  0  0  0  0  0
   -3.0782    1.9654    0.3385 C   0  0  0  0  0  0  0  0  0  0  0  0
   -1.8540    2.3393    0.8900 C   0  0  0  0  0  0  0  0  0  0  0  0
   -1.6822    3.9038    1.6648 Cl  0  0  0  0  0  0  0  0  0  0  0  0
   -0.7615    1.4731    0.8153 C   0  0  0  0  0  0  0  0  0  0  0  0
   -0.8126   -2.3925    2.5330 H   0  0  0  0  0  0  0  0  0  0  0  0
   -0.5157   -3.7676    0.7864 H   0  0  0  0  0  0  0  0  0  0  0  0
    2.6431   -0.9689    1.4461 H   0  0  0  0  0  0  0  0  0  0  0  0
    4.8334    0.0758    1.0240 H   0  0  0  0  0  0  0  0  0  0  0  0
    5.1253    1.6450   -0.8692 H   0  0  0  0  0  0  0  0  0  0  0  0
    3.2271    2.1515   -2.3654 H   0  0  0  0  0  0  0  0  0  0  0  0
   -3.0646   -1.4874   -1.7492 H   0  0  0  0  0  0  0  0  0  0  0  0
   -4.1749    0.4459   -0.6976 H   0  0  0  0  0  0  0  0  0  0  0  0
   -3.9257    2.6373    0.3869 H   0  0  0  0  0  0  0  0  0  0  0  0
    0.1840    1.7867    1.2411 H   0  0  0  0  0  0  0  0  0  0  0  0
  1  2  1  0
  2  3  1  0
  3  4  2  0
  4  5  1  0
  5  6  2  0
  6  7  1  0
  7  8  2  0
  8  9  1  0
  9 10  2  0
 10 11  1  0
  4 12  1  0
 12 13  2  0
 13 14  1  0
 14 15  1  0
 15 16  2  0
 13 17  1  0
 17 18  2  0
 18 19  1  0
 19 20  1  0
 19 21  2  0
 15  2  1  0
 10  5  1  0
 21 12  1  0
  1 22  1  0
  2 23  1  0
  6 24  1  0
  7 25  1  0
  8 26  1  0
  9 27  1  0
 14 28  1  0
 17 29  1  0
 18 30  1  0
 21 31  1  0
M  END
$$$$
