
     RDKit          3D

 31 33  0  0  0  0  0  0  0  0999 V2000
    5.9024    0.4197    0.1704 O   0  0  0  0  0  0  0  0  0  0  0  0
    4.5286    0.2432    0.3206 C   0  0  0  0  0  0  0  0  0  0  0  0
    4.0329   -0.3064    1.5044 C   0  0  0  0  0  0  0  0  0  0  0  0
    2.6602   -0.4915    1.6745 C   0  0  0  0  0  0  0  0  0  0  0  0
    1.7642   -0.1276    0.6571 C   0  0  0  0  0  0  0  0  0  0  0  0
    0.3863   -0.3160    0.8353 C   0  0  0  0  0  0  0  0  0  0  0  0
   -0.5229    0.0454   -0.1713 C   0  0  0  0  0  0  0  0  0  0  0  0
   -0.0361    0.6004   -1.3660 C   0  0  0  0  0  0  0  0  0  0  0  0
    1.3369    0.7961   -1.5638 C   0  0  0  0  0  0  0  0  0  0  0  0
    1.7711    1.3675   -2.8182 C   0  0  0  0  0  0  0  0  0  0  0  0
    2.1180    1.8251   -3.8229 N   0  0  0  0  0  0  0  0  0  0  0  0
    2.2542    0.4329   -0.5501 C   0  0  0  0  0  0  0  0  0  0  0  0
    3.6457    0.6120   -0.7032 C   0  0  0  0  0  0  0  0  0  0  0  0
   -1.9814   -0.1568    0.0246 C   0  0  0  0  0  0  0  0  0  0  0  0
   -2.4660   -1.3342    0.6234 C   0  0  0  0  0  0  0  0  0  0  0  0
   -3.8389   -1.5231    0.8065 C   0  0  0  0  0  0  0  0  0  0  0  0
   -4.7469   -0.5391    0.3954 C   0  0  0  0  0  0  0  0  0  0  0  0
   -6.1168   -0.7194    0.5747 O   0  0  0  0  0  0  0  0  0  0  0  0
   -4.2742    0.6349   -0.2004 C   0  0  0  0  0  0  0  0  0  0  0  0
   -5.1465    1.5948   -0.5973 F   0  0  0  0  0  0  0  0  0  0  0  0
   -2.9012    0.8261   -0.3857 C   0  0  0  0  0  0  0  0  0  0  0  0
    6.2970    0.8155   -0.6749 H   0  0  0  0  0  0  0  0  0  0  0  0
    4.7146   -0.5913    2.2958 H   0  0  0  0  0  0  0  0  0  0  0  0
    2.2988   -0.9201    2.6020 H   0  0  0  0  0  0  0  0  0  0  0  0
    0.0191   -0.7288    1.7681 H   0  0  0  0  0  0  0  0  0  0  0  0
   -0.7286    0.8663   -2.1568 H   0  0  0  0  0  0  0  0  0  0  0  0
    4.0553    1.0365   -1.6110 H   0  0  0  0  0  0  0  0  0  0  0  0
   -1.7846   -2.1163    0.9341 H   0  0  0  0  0  0  0  0  0  0  0  0
   -4.1960   -2.4363    1.2652 H   0  0  0  0  0  0  0  0  0  0  0  0
   -6.4889   -1.5590    1.0032 H   0  0  0  0  0  0  0  0  0  0  0  0
   -2.5566    1.7497   -0.8338 H   0  0  0  0  0  0  0  0  0  0  0  0
  1  2  1  0
  2  3  2  0
  3  4  1  0
  4  5  2  0
  5  6  1  0
  6  7  2  0
  7  8  1  0
  8  9  2  0
  9 10  1  0
 10 11  3  0
  9 12  1  0
 12 13  2  0
  7 14  1  0
 14 15  2  0
 15 16  1  0
 16 17  2  0
 17 18  1  0
 17 19  1  0
 19 20  1  0
 19 21  2  0
 13  2  1  0
 21 14  1  0
 12  5  1  0
  1 22  1  0
  3 23  1  0
  4 24  1  0
  6 25  1  0
  8 26  1  0
 13 27  1  0
 15 28  1  0
 16 29  1  0
 18 30  1  0
 21 31  1  0
M  END
$$$$
