
     RDKit          3D

 55 57  0  0  0  0  0  0  0  0999 V2000
   -2.8009   -1.2927   -0.8770 C   0  0  2  0  0  0  0  0  0  0  0  0
   -2.7770   -2.5669   -0.1508 N   0  0  0  0  0  0  0  0  0  0  0  0
   -3.6030   -1.3990   -2.1918 C   0  0  0  0  0  0  0  0  0  0  0  0
   -5.0689   -1.6323   -1.9321 C   0  0  0  0  0  0  0  0  0  0  0  0
   -5.6098   -2.9269   -2.0095 C   0  0  0  0  0  0  0  0  0  0  0  0
   -6.9657   -3.1404   -1.7423 C   0  0  0  0  0  0  0  0  0  0  0  0
   -7.7884   -2.0663   -1.3916 C   0  0  0  0  0  0  0  0  0  0  0  0
   -7.2560   -0.7770   -1.3049 C   0  0  0  0  0  0  0  0  0  0  0  0
   -5.9007   -0.5591   -1.5710 C   0  0  0  0  0  0  0  0  0  0  0  0
   -1.3875   -0.8511   -1.1729 C   0  0  0  0  0  0  0  0  0  0  0  0
   -0.5548   -1.7047   -1.5857 O   0  0  0  0  0  0  0  0  0  0  0  0
   -0.9824    0.5271   -1.0392 N   0  0  0  0  0  0  0  0  0  0  0  0
   -1.9075    1.6340   -0.8497 C   0  0  0  0  0  0  0  0  0  0  0  0
   -1.1104    2.8963   -1.1484 C   0  0  0  0  0  0  0  0  0  0  0  0
    0.3581    2.4959   -1.0516 C   0  0  0  0  0  0  0  0  0  0  0  0
    0.3873    0.9792   -1.2535 C   0  0  1  0  0  0  0  0  0  0  0  0
    1.3406    0.3206   -0.2895 C   0  0  0  0  0  0  0  0  0  0  0  0
    0.9868    0.1273    0.9062 O   0  0  0  0  0  0  0  0  0  0  0  0
    2.6598   -0.0424   -0.7205 N   0  0  0  0  0  0  0  0  0  0  0  0
    3.6486   -0.6272    0.1827 C   0  0  0  0  0  0  0  0  0  0  0  0
    4.2277    0.4451    1.1099 C   0  0  0  0  0  0  0  0  0  0  0  0
    5.2489   -0.1218    1.9935 N   0  0  0  0  0  0  0  0  0  0  0  0
    5.9665    0.6572    2.9691 C   0  0  0  0  0  0  0  0  0  0  0  0
    5.7318    2.0345    3.1390 C   0  0  0  0  0  0  0  0  0  0  0  0
    6.4556    2.7443    4.1006 C   0  0  0  0  0  0  0  0  0  0  0  0
    7.3803    2.1085    4.8669 N   0  0  0  0  0  0  0  0  0  0  0  0
    7.6290    0.7801    4.7261 C   0  0  0  0  0  0  0  0  0  0  0  0
    6.9283    0.0323    3.7769 C   0  0  0  0  0  0  0  0  0  0  0  0
   -3.2826   -0.5370   -0.2198 H   0  0  0  0  0  0  0  0  0  0  0  0
   -3.7318   -2.7594    0.2300 H   0  0  0  0  0  0  0  0  0  0  0  0
   -2.5383   -3.3461   -0.8073 H   0  0  0  0  0  0  0  0  0  0  0  0
   -3.1880   -2.2123   -2.8276 H   0  0  0  0  0  0  0  0  0  0  0  0
   -3.4924   -0.4578   -2.7737 H   0  0  0  0  0  0  0  0  0  0  0  0
   -4.9821   -3.7694   -2.2723 H   0  0  0  0  0  0  0  0  0  0  0  0
   -7.3782   -4.1391   -1.8045 H   0  0  0  0  0  0  0  0  0  0  0  0
   -8.8374   -2.2336   -1.1842 H   0  0  0  0  0  0  0  0  0  0  0  0
   -7.8930    0.0533   -1.0290 H   0  0  0  0  0  0  0  0  0  0  0  0
   -5.4982    0.4436   -1.4941 H   0  0  0  0  0  0  0  0  0  0  0  0
   -2.2673    1.6423    0.2018 H   0  0  0  0  0  0  0  0  0  0  0  0
   -2.7690    1.5537   -1.5468 H   0  0  0  0  0  0  0  0  0  0  0  0
   -1.3318    3.2405   -2.1828 H   0  0  0  0  0  0  0  0  0  0  0  0
   -1.3578    3.7104   -0.4328 H   0  0  0  0  0  0  0  0  0  0  0  0
    0.7408    2.7802   -0.0453 H   0  0  0  0  0  0  0  0  0  0  0  0
    0.9666    3.0152   -1.8238 H   0  0  0  0  0  0  0  0  0  0  0  0
    0.6800    0.7479   -2.3017 H   0  0  0  0  0  0  0  0  0  0  0  0
    2.9154    0.0736   -1.7270 H   0  0  0  0  0  0  0  0  0  0  0  0
    3.1818   -1.4429    0.7769 H   0  0  0  0  0  0  0  0  0  0  0  0
    4.4733   -1.0683   -0.4188 H   0  0  0  0  0  0  0  0  0  0  0  0
    4.6822    1.2491    0.4911 H   0  0  0  0  0  0  0  0  0  0  0  0
    3.4130    0.8805    1.7269 H   0  0  0  0  0  0  0  0  0  0  0  0
    5.4705   -1.1416    1.9189 H   0  0  0  0  0  0  0  0  0  0  0  0
    5.0013    2.5620    2.5412 H   0  0  0  0  0  0  0  0  0  0  0  0
    6.2812    3.8032    4.2375 H   0  0  0  0  0  0  0  0  0  0  0  0
    8.3717    0.3030    5.3516 H   0  0  0  0  0  0  0  0  0  0  0  0
    7.1336   -1.0256    3.6723 H   0  0  0  0  0  0  0  0  0  0  0  0
  1  2  1  0
  1  3  1  0
  3  4  1  0
  4  5  2  0
  5  6  1  0
  6  7  2  0
  7  8  1  0
  8  9  2  0
  1 10  1  0
 10 11  2  0
 10 12  1  0
 12 13  1  0
 13 14  1  0
 14 15  1  0
 15 16  1  0
 16 17  1  0
 17 18  2  0
 17 19  1  0
 19 20  1  0
 20 21  1  0
 21 22  1  0
 22 23  1  0
 23 24  2  0
 24 25  1  0
 25 26  2  0
 26 27  1  0
 27 28  2  0
  9  4  1  0
 16 12  1  0
 28 23  1  0
  1 29  1  1
  2 30  1  0
  2 31  1  0
  3 32  1  0
  3 33  1  0
  5 34  1  0
  6 35  1  0
  7 36  1  0
  8 37  1  0
  9 38  1  0
 13 39  1  0
 13 40  1  0
 14 41  1  0
 14 42  1  0
 15 43  1  0
 15 44  1  0
 16 45  1  6
 19 46  1  0
 20 47  1  0
 20 48  1  0
 21 49  1  0
 21 50  1  0
 22 51  1  0
 24 52  1  0
 25 53  1  0
 27 54  1  0
 28 55  1  0
M  END
$$$$
