
     RDKit          3D

 69 70  0  0  0  0  0  0  0  0999 V2000
    0.6893    2.4349    1.8793 N   0  0  0  0  0  0  0  0  0  0  0  0
    1.7074    1.7333    1.1516 C   0  0  0  0  0  0  0  0  0  0  0  0
    3.1266    1.8359    1.6487 C   0  0  0  0  0  0  0  0  0  0  0  0
    1.3689    1.0245    0.0497 C   0  0  0  0  0  0  0  0  0  0  0  0
   -0.0995    0.8023   -0.2827 C   0  0  0  0  0  0  0  0  0  0  0  0
   -0.5228   -0.6032    0.1027 C   0  0  0  0  0  0  0  0  0  0  0  0
   -1.0461   -1.4748   -0.8691 C   0  0  0  0  0  0  0  0  0  0  0  0
   -1.4836   -2.7661   -0.5196 C   0  0  0  0  0  0  0  0  0  0  0  0
   -1.3864   -3.1787    0.8199 C   0  0  0  0  0  0  0  0  0  0  0  0
   -0.8677   -2.3185    1.7896 C   0  0  0  0  0  0  0  0  0  0  0  0
   -0.4416   -1.0374    1.4373 C   0  0  0  0  0  0  0  0  0  0  0  0
   -2.0288   -3.6514   -1.5153 N   0  0  0  0  0  4  0  0  0  0  0  0
   -2.4696   -4.9078   -1.1675 O   0  0  0  0  0  1  0  0  0  0  0  0
   -2.1147   -3.2934   -2.7084 O   0  0  0  0  0  0  0  0  0  0  0  0
   -1.0573    1.8048    0.3429 C   0  0  0  0  0  0  0  0  0  0  0  0
   -2.4497    1.8159   -0.1865 C   0  0  0  0  0  0  0  0  0  0  0  0
   -3.4224    2.1454    0.5462 O   0  0  0  0  0  0  0  0  0  0  0  0
   -2.6815    1.3898   -1.5003 O   0  0  0  0  0  0  0  0  0  0  0  0
   -3.9832    1.1399   -2.0252 C   0  0  0  0  0  0  0  0  0  0  0  0
   -4.5109   -0.2024   -1.5156 C   0  0  0  0  0  0  0  0  0  0  0  0
   -5.7945   -0.4605   -2.0531 O   0  0  0  0  0  0  0  0  0  0  0  0
   -6.8183   -0.0413   -1.1683 C   0  0  0  0  0  0  0  0  0  0  0  0
   -7.2297   -1.1777   -0.2237 C   0  0  0  0  0  0  0  0  0  0  0  0
   -7.7592   -2.3899   -0.9868 C   0  0  0  0  0  0  0  0  0  0  0  0
   -0.6535    2.5632    1.3900 C   0  0  0  0  0  0  0  0  0  0  0  0
   -1.5578    3.5572    2.0722 C   0  0  0  0  0  0  0  0  0  0  0  0
    2.3789    0.3808   -0.8351 C   0  0  0  0  0  0  0  0  0  0  0  0
    2.0531   -0.6265   -1.5215 O   0  0  0  0  0  0  0  0  0  0  0  0
    3.6652    0.9190   -0.9581 O   0  0  0  0  0  0  0  0  0  0  0  0
    4.7047    0.3153   -1.7261 C   0  0  0  0  0  0  0  0  0  0  0  0
    5.2504   -0.9328   -1.0248 C   0  0  0  0  0  0  0  0  0  0  0  0
    5.5034   -0.6704    0.3428 O   0  0  0  0  0  0  0  0  0  0  0  0
    6.8406   -0.2583    0.5328 C   0  0  0  0  0  0  0  0  0  0  0  0
    7.0193    0.1859    1.9835 C   0  0  0  0  0  0  0  0  0  0  0  0
    8.4516    0.6365    2.2554 C   0  0  0  0  0  0  0  0  0  0  0  0
    0.9561    2.9445    2.7517 H   0  0  0  0  0  0  0  0  0  0  0  0
    3.6114    0.8374    1.6512 H   0  0  0  0  0  0  0  0  0  0  0  0
    3.7015    2.5428    1.0151 H   0  0  0  0  0  0  0  0  0  0  0  0
    3.1513    2.2124    2.6924 H   0  0  0  0  0  0  0  0  0  0  0  0
   -0.1826    0.9278   -1.3855 H   0  0  0  0  0  0  0  0  0  0  0  0
   -1.1207   -1.1425   -1.8969 H   0  0  0  0  0  0  0  0  0  0  0  0
   -1.7142   -4.1656    1.1194 H   0  0  0  0  0  0  0  0  0  0  0  0
   -0.8010   -2.6443    2.8196 H   0  0  0  0  0  0  0  0  0  0  0  0
   -0.0543   -0.3817    2.2064 H   0  0  0  0  0  0  0  0  0  0  0  0
   -4.6735    1.9671   -1.7524 H   0  0  0  0  0  0  0  0  0  0  0  0
   -3.9160    1.1020   -3.1331 H   0  0  0  0  0  0  0  0  0  0  0  0
   -4.4810   -0.2397   -0.4018 H   0  0  0  0  0  0  0  0  0  0  0  0
   -3.8274   -1.0015   -1.8706 H   0  0  0  0  0  0  0  0  0  0  0  0
   -6.5395    0.8619   -0.5762 H   0  0  0  0  0  0  0  0  0  0  0  0
   -7.7002    0.2541   -1.7758 H   0  0  0  0  0  0  0  0  0  0  0  0
   -8.0253   -0.8076    0.4584 H   0  0  0  0  0  0  0  0  0  0  0  0
   -6.3638   -1.4869    0.3996 H   0  0  0  0  0  0  0  0  0  0  0  0
   -6.9665   -2.8151   -1.6383 H   0  0  0  0  0  0  0  0  0  0  0  0
   -8.6330   -2.1031   -1.6097 H   0  0  0  0  0  0  0  0  0  0  0  0
   -8.0789   -3.1712   -0.2656 H   0  0  0  0  0  0  0  0  0  0  0  0
   -2.3055    3.0233    2.6952 H   0  0  0  0  0  0  0  0  0  0  0  0
   -0.9748    4.2289    2.7363 H   0  0  0  0  0  0  0  0  0  0  0  0
   -2.0677    4.1988    1.3228 H   0  0  0  0  0  0  0  0  0  0  0  0
    5.5232    1.0539   -1.8513 H   0  0  0  0  0  0  0  0  0  0  0  0
    4.3323    0.0533   -2.7403 H   0  0  0  0  0  0  0  0  0  0  0  0
    4.4827   -1.7325   -1.0806 H   0  0  0  0  0  0  0  0  0  0  0  0
    6.1409   -1.3211   -1.5736 H   0  0  0  0  0  0  0  0  0  0  0  0
    7.0960    0.5975   -0.1329 H   0  0  0  0  0  0  0  0  0  0  0  0
    7.5320   -1.1072    0.3279 H   0  0  0  0  0  0  0  0  0  0  0  0
    6.7681   -0.6579    2.6624 H   0  0  0  0  0  0  0  0  0  0  0  0
    6.3261    1.0279    2.1995 H   0  0  0  0  0  0  0  0  0  0  0  0
    8.7157    1.4972    1.6046 H   0  0  0  0  0  0  0  0  0  0  0  0
    8.5469    0.9512    3.3160 H   0  0  0  0  0  0  0  0  0  0  0  0
    9.1610   -0.1975    2.0673 H   0  0  0  0  0  0  0  0  0  0  0  0
  1  2  1  0
  2  3  1  0
  2  4  2  0
  4  5  1  0
  5  6  1  0
  6  7  2  0
  7  8  1  0
  8  9  2  0
  9 10  1  0
 10 11  2  0
  8 12  1  0
 12 13  1  0
 12 14  2  0
  5 15  1  0
 15 16  1  0
 16 17  2  0
 16 18  1  0
 18 19  1  0
 19 20  1  0
 20 21  1  0
 21 22  1  0
 22 23  1  0
 23 24  1  0
 15 25  2  0
 25 26  1  0
  4 27  1  0
 27 28  2  0
 27 29  1  0
 29 30  1  0
 30 31  1  0
 31 32  1  0
 32 33  1  0
 33 34  1  0
 34 35  1  0
 25  1  1  0
 11  6  1  0
  1 36  1  0
  3 37  1  0
  3 38  1  0
  3 39  1  0
  5 40  1  0
  7 41  1  0
  9 42  1  0
 10 43  1  0
 11 44  1  0
 19 45  1  0
 19 46  1  0
 20 47  1  0
 20 48  1  0
 22 49  1  0
 22 50  1  0
 23 51  1  0
 23 52  1  0
 24 53  1  0
 24 54  1  0
 24 55  1  0
 26 56  1  0
 26 57  1  0
 26 58  1  0
 30 59  1  0
 30 60  1  0
 31 61  1  0
 31 62  1  0
 33 63  1  0
 33 64  1  0
 34 65  1  0
 34 66  1  0
 35 67  1  0
 35 68  1  0
 35 69  1  0
M  CHG  2  12   1  13  -1
M  END
$$$$
