
     RDKit          3D

 30 32  0  0  0  0  0  0  0  0999 V2000
   -3.2104    2.8885   -0.8395 N   0  0  0  0  0  0  0  0  0  0  0  0
   -2.2651    1.8291   -1.0083 C   0  0  0  0  0  0  0  0  0  0  0  0
   -1.1896    2.0646   -1.6219 O   0  0  0  0  0  0  0  0  0  0  0  0
   -2.5344    0.4688   -0.4747 C   0  0  0  0  0  0  0  0  0  0  0  0
   -3.8589   -0.0032   -0.3960 C   0  0  0  0  0  0  0  0  0  0  0  0
   -4.1339   -1.2842    0.0920 C   0  0  0  0  0  0  0  0  0  0  0  0
   -3.0952   -2.1177    0.5086 C   0  0  0  0  0  0  0  0  0  0  0  0
   -1.7738   -1.6721    0.4360 C   0  0  0  0  0  0  0  0  0  0  0  0
   -0.7571   -2.4722    0.8487 N   0  0  0  0  0  0  0  0  0  0  0  0
    0.5360   -2.0597    0.7944 C   0  0  0  0  0  0  0  0  0  0  0  0
    0.8386   -0.7776    0.3027 C   0  0  0  0  0  0  0  0  0  0  0  0
   -0.1869    0.0234   -0.0990 N   0  0  0  0  0  0  0  0  0  0  0  0
   -1.4851   -0.3819   -0.0564 C   0  0  0  0  0  0  0  0  0  0  0  0
    2.2326   -0.2689    0.2292 C   0  0  0  0  0  0  0  0  0  0  0  0
    2.4755    1.1166    0.2918 C   0  0  0  0  0  0  0  0  0  0  0  0
    3.7798    1.6141    0.2167 C   0  0  0  0  0  0  0  0  0  0  0  0
    4.8578    0.7374    0.0703 C   0  0  0  0  0  0  0  0  0  0  0  0
    6.4933    1.3643   -0.0259 Cl  0  0  0  0  0  0  0  0  0  0  0  0
    4.6302   -0.6391   -0.0058 C   0  0  0  0  0  0  0  0  0  0  0  0
    3.3276   -1.1418    0.0698 C   0  0  0  0  0  0  0  0  0  0  0  0
   -3.0276    3.8240   -1.2658 H   0  0  0  0  0  0  0  0  0  0  0  0
   -4.0528    2.7763   -0.2339 H   0  0  0  0  0  0  0  0  0  0  0  0
   -4.6860    0.6069   -0.7346 H   0  0  0  0  0  0  0  0  0  0  0  0
   -5.1571   -1.6336    0.1423 H   0  0  0  0  0  0  0  0  0  0  0  0
   -3.3193   -3.1076    0.8864 H   0  0  0  0  0  0  0  0  0  0  0  0
    1.3095   -2.7212    1.1584 H   0  0  0  0  0  0  0  0  0  0  0  0
    1.6572    1.8161    0.4107 H   0  0  0  0  0  0  0  0  0  0  0  0
    3.9506    2.6817    0.2727 H   0  0  0  0  0  0  0  0  0  0  0  0
    5.4617   -1.3213   -0.1303 H   0  0  0  0  0  0  0  0  0  0  0  0
    3.1827   -2.2097   -0.0220 H   0  0  0  0  0  0  0  0  0  0  0  0
  1  2  1  0
  2  3  2  0
  2  4  1  0
  4  5  2  0
  5  6  1  0
  6  7  2  0
  7  8  1  0
  8  9  2  0
  9 10  1  0
 10 11  2  0
 11 12  1  0
 12 13  2  0
 11 14  1  0
 14 15  2  0
 15 16  1  0
 16 17  2  0
 17 18  1  0
 17 19  1  0
 19 20  2  0
 13  4  1  0
 20 14  1  0
 13  8  1  0
  1 21  1  0
  1 22  1  0
  5 23  1  0
  6 24  1  0
  7 25  1  0
 10 26  1  0
 15 27  1  0
 16 28  1  0
 19 29  1  0
 20 30  1  0
M  END
$$$$
