
     RDKit          3D

 30 30  0  0  0  0  0  0  0  0999 V2000
    5.5028    1.1029    0.8745 O   0  0  0  0  0  0  0  0  0  0  0  0
    4.6584    0.1790    1.4817 C   0  0  0  0  0  0  0  0  0  0  0  0
    4.6639    0.0480    2.7349 O   0  0  0  0  0  0  0  0  0  0  0  0
    3.7078   -0.6210    0.6488 C   0  0  0  0  0  0  0  0  0  0  0  0
    2.4401    0.0892    0.4884 N   0  0  0  0  0  0  0  0  0  0  0  0
    1.3612   -0.4687   -0.2718 C   0  0  0  0  0  0  0  0  0  0  0  0
    1.4954   -1.5944   -0.8257 O   0  0  0  0  0  0  0  0  0  0  0  0
    0.1330    0.2606   -0.4066 N   0  0  0  0  0  0  0  0  0  0  0  0
   -1.0228   -0.2733   -1.1400 C   0  0  0  0  0  0  0  0  0  0  0  0
   -2.0322    0.8442   -1.4815 C   0  0  0  0  0  0  0  0  0  0  0  0
   -2.7810    1.3608   -0.2424 C   0  0  0  0  0  0  0  0  0  0  0  0
   -3.4461    0.2135    0.5252 C   0  0  0  0  0  0  0  0  0  0  0  0
   -2.4206   -0.8591    0.9057 C   0  0  0  0  0  0  0  0  0  0  0  0
   -1.7088   -1.3997   -0.3405 C   0  0  0  0  0  0  0  0  0  0  0  0
    6.1401    1.6649    1.4260 H   0  0  0  0  0  0  0  0  0  0  0  0
    3.5246   -1.6038    1.1349 H   0  0  0  0  0  0  0  0  0  0  0  0
    4.1609   -0.8009   -0.3496 H   0  0  0  0  0  0  0  0  0  0  0  0
    2.3035    1.0239    0.9373 H   0  0  0  0  0  0  0  0  0  0  0  0
    0.0999    1.2299   -0.0187 H   0  0  0  0  0  0  0  0  0  0  0  0
   -0.6626   -0.6965   -2.1040 H   0  0  0  0  0  0  0  0  0  0  0  0
   -2.7740    0.4512   -2.2114 H   0  0  0  0  0  0  0  0  0  0  0  0
   -1.5024    1.6899   -1.9712 H   0  0  0  0  0  0  0  0  0  0  0  0
   -3.5618    2.0827   -0.5649 H   0  0  0  0  0  0  0  0  0  0  0  0
   -2.0835    1.9036    0.4307 H   0  0  0  0  0  0  0  0  0  0  0  0
   -3.9171    0.6145    1.4483 H   0  0  0  0  0  0  0  0  0  0  0  0
   -4.2474   -0.2393   -0.0994 H   0  0  0  0  0  0  0  0  0  0  0  0
   -2.9407   -1.6951    1.4210 H   0  0  0  0  0  0  0  0  0  0  0  0
   -1.6747   -0.4337    1.6125 H   0  0  0  0  0  0  0  0  0  0  0  0
   -2.4521   -1.9096   -0.9924 H   0  0  0  0  0  0  0  0  0  0  0  0
   -0.9638   -2.1638   -0.0332 H   0  0  0  0  0  0  0  0  0  0  0  0
  1  2  1  0
  2  3  2  0
  2  4  1  0
  4  5  1  0
  5  6  1  0
  6  7  2  0
  6  8  1  0
  8  9  1  0
  9 10  1  0
 10 11  1  0
 11 12  1  0
 12 13  1  0
 13 14  1  0
 14  9  1  0
  1 15  1  0
  4 16  1  0
  4 17  1  0
  5 18  1  0
  8 19  1  0
  9 20  1  0
 10 21  1  0
 10 22  1  0
 11 23  1  0
 11 24  1  0
 12 25  1  0
 12 26  1  0
 13 27  1  0
 13 28  1  0
 14 29  1  0
 14 30  1  0
M  END
$$$$
