
     RDKit          3D

 55 57  0  0  0  0  0  0  0  0999 V2000
    1.4129   -2.3557    1.0852 C   0  0  0  0  0  0  0  0  0  0  0  0
    0.3520   -1.3366    0.7439 C   0  0  0  0  0  0  0  0  0  0  0  0
   -0.7888   -1.7711    0.0572 C   0  0  0  0  0  0  0  0  0  0  0  0
   -1.7657   -0.8918   -0.2719 N   0  0  0  0  0  4  0  0  0  0  0  0
   -1.6726    0.4270    0.0581 C   0  0  0  0  0  0  0  0  0  0  0  0
   -2.7100    1.3642   -0.3061 N   0  0  0  0  0  0  0  0  0  0  0  0
   -4.0529    0.9928   -0.7573 C   0  0  0  0  0  0  0  0  0  0  0  0
   -4.9170    0.5081    0.4156 C   0  0  0  0  0  0  0  0  0  0  0  0
   -4.9849    1.5050    1.3764 F   0  0  0  0  0  0  0  0  0  0  0  0
   -4.3464   -0.6075    1.0043 F   0  0  0  0  0  0  0  0  0  0  0  0
   -6.3034    0.1607   -0.0775 C   0  0  0  0  0  0  0  0  0  0  0  0
   -6.5560   -1.0802   -0.5939 N   0  0  0  0  0  4  0  0  0  0  0  0
   -7.7813   -1.4152   -1.0837 C   0  0  0  0  0  0  0  0  0  0  0  0
   -8.8176   -0.4806   -1.0855 C   0  0  0  0  0  0  0  0  0  0  0  0
   -8.5819    0.8000   -0.5878 C   0  0  0  0  0  0  0  0  0  0  0  0
   -7.3216    1.1301   -0.0883 C   0  0  0  0  0  0  0  0  0  0  0  0
   -0.5330    0.8745    0.7513 C   0  0  0  0  0  0  0  0  0  0  0  0
   -0.4346    2.0962    1.0569 O   0  0  0  0  0  0  0  0  0  0  0  0
    0.4629   -0.0084    1.0982 N   0  0  0  0  0  0  0  0  0  0  0  0
    1.6453    0.5052    1.8248 C   0  0  0  0  0  0  0  0  0  0  0  0
    2.5730    1.2506    0.9051 C   0  0  0  0  0  0  0  0  0  0  0  0
    3.1409    2.2950    1.3252 O   0  0  0  0  0  0  0  0  0  0  0  0
    2.8571    0.7596   -0.4142 N   0  0  0  0  0  0  0  0  0  0  0  0
    3.8615    1.3761   -1.2771 C   0  0  0  0  0  0  0  0  0  0  0  0
    5.2399    1.0829   -0.7605 C   0  0  0  0  0  0  0  0  0  0  0  0
    5.7628   -0.2203   -0.8022 C   0  0  0  0  0  0  0  0  0  0  0  0
    5.0277   -1.2365   -1.3250 F   0  0  0  0  0  0  0  0  0  0  0  0
    7.0480   -0.4653   -0.2938 C   0  0  0  0  0  0  0  0  0  0  0  0
    7.6141   -1.8556   -0.3045 C   0  0  0  0  0  0  0  0  0  0  0  0
    7.7760    0.5936    0.2667 C   0  0  0  0  0  0  0  0  0  0  0  0
    7.2197    1.8734    0.2928 C   0  0  0  0  0  0  0  0  0  0  0  0
    5.9775    2.0877   -0.2139 N   0  0  0  0  0  0  0  0  0  0  0  0
    2.4084   -2.0092    0.7382 H   0  0  0  0  0  0  0  0  0  0  0  0
    1.2164   -3.3339    0.5968 H   0  0  0  0  0  0  0  0  0  0  0  0
    1.4339   -2.5198    2.1828 H   0  0  0  0  0  0  0  0  0  0  0  0
   -0.8994   -2.8120   -0.2233 H   0  0  0  0  0  0  0  0  0  0  0  0
   -2.5868   -1.2614   -0.7966 H   0  0  0  0  0  0  0  0  0  0  0  0
   -2.5065    2.3877   -0.2476 H   0  0  0  0  0  0  0  0  0  0  0  0
   -3.9998    0.2340   -1.5656 H   0  0  0  0  0  0  0  0  0  0  0  0
   -4.5370    1.8907   -1.2018 H   0  0  0  0  0  0  0  0  0  0  0  0
   -5.7981   -1.7989   -0.6250 H   0  0  0  0  0  0  0  0  0  0  0  0
   -7.9529   -2.4081   -1.4800 H   0  0  0  0  0  0  0  0  0  0  0  0
   -9.7915   -0.7446   -1.4768 H   0  0  0  0  0  0  0  0  0  0  0  0
   -9.3734    1.5382   -0.5942 H   0  0  0  0  0  0  0  0  0  0  0  0
   -7.1430    2.1321    0.2809 H   0  0  0  0  0  0  0  0  0  0  0  0
    1.3128    1.1812    2.6438 H   0  0  0  0  0  0  0  0  0  0  0  0
    2.2149   -0.2958    2.3349 H   0  0  0  0  0  0  0  0  0  0  0  0
    2.3397   -0.0690   -0.7817 H   0  0  0  0  0  0  0  0  0  0  0  0
    3.6867    2.4726   -1.3347 H   0  0  0  0  0  0  0  0  0  0  0  0
    3.7654    0.9700   -2.3074 H   0  0  0  0  0  0  0  0  0  0  0  0
    7.4705   -2.3178   -1.3040 H   0  0  0  0  0  0  0  0  0  0  0  0
    7.0956   -2.4721    0.4594 H   0  0  0  0  0  0  0  0  0  0  0  0
    8.7023   -1.8506   -0.0814 H   0  0  0  0  0  0  0  0  0  0  0  0
    8.7635    0.4317    0.6808 H   0  0  0  0  0  0  0  0  0  0  0  0
    7.7746    2.6972    0.7214 H   0  0  0  0  0  0  0  0  0  0  0  0
  1  2  1  0
  2  3  2  0
  3  4  1  0
  4  5  2  0
  5  6  1  0
  6  7  1  0
  7  8  1  0
  8  9  1  0
  8 10  1  0
  8 11  1  0
 11 12  2  0
 12 13  1  0
 13 14  2  0
 14 15  1  0
 15 16  2  0
  5 17  1  0
 17 18  2  0
 17 19  1  0
 19 20  1  0
 20 21  1  0
 21 22  2  0
 21 23  1  0
 23 24  1  0
 24 25  1  0
 25 26  2  0
 26 27  1  0
 26 28  1  0
 28 29  1  0
 28 30  2  0
 30 31  1  0
 31 32  2  0
 19  2  1  0
 32 25  1  0
 16 11  1  0
  1 33  1  0
  1 34  1  0
  1 35  1  0
  3 36  1  0
  4 37  1  0
  6 38  1  0
  7 39  1  0
  7 40  1  0
 12 41  1  0
 13 42  1  0
 14 43  1  0
 15 44  1  0
 16 45  1  0
 20 46  1  0
 20 47  1  0
 23 48  1  0
 24 49  1  0
 24 50  1  0
 29 51  1  0
 29 52  1  0
 29 53  1  0
 30 54  1  0
 31 55  1  0
M  CHG  2   4   1  12   1
M  END
$$$$
