
     RDKit          3D

 23 22  0  0  0  0  0  0  0  0999 V2000
   -2.0704   -0.1895   -0.3172 C   0  0  0  0  0  0  0  0  0  0  0  0
   -1.7982   -1.6545   -0.4985 C   0  0  0  0  0  0  0  0  0  0  0  0
   -1.6358   -2.1205   -1.6151 O   0  0  0  0  0  0  0  0  0  0  0  0
   -0.8785    0.7039   -0.7514 C   0  0  1  0  0  0  0  0  0  0  0  0
   -1.3749    1.9068   -1.2871 O   0  0  0  0  0  0  0  0  0  0  0  0
    0.1117    1.0259    0.4035 C   0  0  2  0  0  0  0  0  0  0  0  0
    1.0349    1.9869   -0.0493 O   0  0  0  0  0  0  0  0  0  0  0  0
    0.8678   -0.2053    0.9832 C   0  0  2  0  0  0  0  0  0  0  0  0
    1.4694    0.1437    2.2061 O   0  0  0  0  0  0  0  0  0  0  0  0
    1.9261   -0.8077    0.0333 C   0  0  0  0  0  0  0  0  0  0  0  0
    1.3143   -1.5439   -0.9880 O   0  0  0  0  0  0  0  0  0  0  0  0
   -2.3382    0.0080    0.7431 H   0  0  0  0  0  0  0  0  0  0  0  0
   -2.9656    0.0588   -0.9284 H   0  0  0  0  0  0  0  0  0  0  0  0
   -1.7708   -2.3122    0.3641 H   0  0  0  0  0  0  0  0  0  0  0  0
   -0.3241    0.2095   -1.5754 H   0  0  0  0  0  0  0  0  0  0  0  0
   -1.8816    2.3694   -0.5684 H   0  0  0  0  0  0  0  0  0  0  0  0
   -0.4957    1.4626    1.2334 H   0  0  0  0  0  0  0  0  0  0  0  0
    1.2667    2.5638    0.7247 H   0  0  0  0  0  0  0  0  0  0  0  0
    0.1326   -0.9988    1.2223 H   0  0  0  0  0  0  0  0  0  0  0  0
    2.2132    0.7719    2.0114 H   0  0  0  0  0  0  0  0  0  0  0  0
    2.5839   -1.4894    0.6181 H   0  0  0  0  0  0  0  0  0  0  0  0
    2.5645   -0.0068   -0.4013 H   0  0  0  0  0  0  0  0  0  0  0  0
    2.0487   -1.8827   -1.5630 H   0  0  0  0  0  0  0  0  0  0  0  0
  1  2  1  0
  2  3  2  0
  1  4  1  0
  4  5  1  0
  4  6  1  0
  6  7  1  0
  6  8  1  0
  8  9  1  0
  8 10  1  0
 10 11  1  0
  1 12  1  0
  1 13  1  0
  2 14  1  0
  4 15  1  6
  5 16  1  0
  6 17  1  1
  7 18  1  0
  8 19  1  1
  9 20  1  0
 10 21  1  0
 10 22  1  0
 11 23  1  0
M  END
$$$$
