
     RDKit          3D

 46 46  0  0  0  0  0  0  0  0999 V2000
    8.8803   -0.5726   -0.1100 C   0  0  0  0  0  0  0  0  0  0  0  0
    7.5201   -0.6285   -0.5219 O   0  0  0  0  0  0  0  0  0  0  0  0
    6.6864    0.4934   -0.5188 C   0  0  0  0  0  0  0  0  0  0  0  0
    7.1150    1.6134   -0.1270 O   0  0  0  0  0  0  0  0  0  0  0  0
    5.2585    0.3501   -0.9396 C   0  0  0  0  0  0  0  0  0  0  0  0
    4.3886   -0.0586    0.2514 C   0  0  0  0  0  0  0  0  0  0  0  0
    2.9518   -0.2108   -0.1709 C   0  0  0  0  0  0  0  0  0  0  0  0
    2.4816   -1.4415   -0.6522 C   0  0  0  0  0  0  0  0  0  0  0  0
    1.1558   -1.5732   -1.0738 C   0  0  0  0  0  0  0  0  0  0  0  0
    0.2796   -0.4823   -1.0273 C   0  0  0  0  0  0  0  0  0  0  0  0
   -1.0406   -0.6800   -1.4652 O   0  0  0  0  0  0  0  0  0  0  0  0
   -2.1344    0.2223   -1.2864 C   0  0  0  0  0  0  0  0  0  0  0  0
   -2.7576    0.0571    0.1113 C   0  0  0  0  0  0  0  0  0  0  0  0
   -1.8359    0.4084    1.1133 O   0  0  0  0  0  0  0  0  0  0  0  0
   -4.0605    0.8823    0.2404 C   0  0  0  0  0  0  0  0  0  0  0  0
   -4.7432    0.6622    1.5339 N   0  0  0  0  0  0  0  0  0  0  0  0
   -5.9768   -0.1495    1.4779 C   0  0  0  0  0  0  0  0  0  0  0  0
   -7.1128    0.5968    0.7657 C   0  0  0  0  0  0  0  0  0  0  0  0
   -5.7487   -1.5479    0.8839 C   0  0  0  0  0  0  0  0  0  0  0  0
    0.7585    0.7598   -0.5660 C   0  0  0  0  0  0  0  0  0  0  0  0
    2.0848    0.8917   -0.1437 C   0  0  0  0  0  0  0  0  0  0  0  0
    9.4443    0.1339   -0.7552 H   0  0  0  0  0  0  0  0  0  0  0  0
    8.9435   -0.2458    0.9495 H   0  0  0  0  0  0  0  0  0  0  0  0
    9.3309   -1.5820   -0.2024 H   0  0  0  0  0  0  0  0  0  0  0  0
    4.8969    1.3147   -1.3592 H   0  0  0  0  0  0  0  0  0  0  0  0
    5.1922   -0.4217   -1.7371 H   0  0  0  0  0  0  0  0  0  0  0  0
    4.7595   -1.0182    0.6754 H   0  0  0  0  0  0  0  0  0  0  0  0
    4.4655    0.7091    1.0531 H   0  0  0  0  0  0  0  0  0  0  0  0
    3.1420   -2.2985   -0.7023 H   0  0  0  0  0  0  0  0  0  0  0  0
    0.8054   -2.5307   -1.4381 H   0  0  0  0  0  0  0  0  0  0  0  0
   -2.9024   -0.0371   -2.0460 H   0  0  0  0  0  0  0  0  0  0  0  0
   -1.8367    1.2726   -1.4847 H   0  0  0  0  0  0  0  0  0  0  0  0
   -3.0084   -1.0168    0.2398 H   0  0  0  0  0  0  0  0  0  0  0  0
   -1.6821    1.3872    1.0506 H   0  0  0  0  0  0  0  0  0  0  0  0
   -3.8124    1.9625    0.1628 H   0  0  0  0  0  0  0  0  0  0  0  0
   -4.7231    0.6608   -0.6211 H   0  0  0  0  0  0  0  0  0  0  0  0
   -4.0945    0.2467    2.2430 H   0  0  0  0  0  0  0  0  0  0  0  0
   -6.3174   -0.3015    2.5269 H   0  0  0  0  0  0  0  0  0  0  0  0
   -8.0749    0.0685    0.9374 H   0  0  0  0  0  0  0  0  0  0  0  0
   -6.9455    0.6559   -0.3292 H   0  0  0  0  0  0  0  0  0  0  0  0
   -7.2036    1.6261    1.1732 H   0  0  0  0  0  0  0  0  0  0  0  0
   -5.5005   -1.4971   -0.1965 H   0  0  0  0  0  0  0  0  0  0  0  0
   -6.6689   -2.1595    0.9987 H   0  0  0  0  0  0  0  0  0  0  0  0
   -4.9252   -2.0603    1.4244 H   0  0  0  0  0  0  0  0  0  0  0  0
    0.1270    1.6344   -0.5386 H   0  0  0  0  0  0  0  0  0  0  0  0
    2.4379    1.8561    0.2005 H   0  0  0  0  0  0  0  0  0  0  0  0
  1  2  1  0
  2  3  1  0
  3  4  2  0
  3  5  1  0
  5  6  1  0
  6  7  1  0
  7  8  2  0
  8  9  1  0
  9 10  2  0
 10 11  1  0
 11 12  1  0
 12 13  1  0
 13 14  1  0
 13 15  1  0
 15 16  1  0
 16 17  1  0
 17 18  1  0
 17 19  1  0
 10 20  1  0
 20 21  2  0
 21  7  1  0
  1 22  1  0
  1 23  1  0
  1 24  1  0
  5 25  1  0
  5 26  1  0
  6 27  1  0
  6 28  1  0
  8 29  1  0
  9 30  1  0
 12 31  1  0
 12 32  1  0
 13 33  1  0
 14 34  1  0
 15 35  1  0
 15 36  1  0
 16 37  1  0
 17 38  1  0
 18 39  1  0
 18 40  1  0
 18 41  1  0
 19 42  1  0
 19 43  1  0
 19 44  1  0
 20 45  1  0
 21 46  1  0
M  END
$$$$
