
     RDKit          3D

 39 40  0  0  0  0  0  0  0  0999 V2000
    2.3308    1.0617    0.3462 O   0  0  0  0  0  0  0  0  0  0  0  0
    1.2469   -0.1420   -0.1476 P   0  0  1  0  0  5  0  0  0  0  0  0
    1.3127   -1.3118    0.8093 O   0  0  0  0  0  0  0  0  0  0  0  0
   -0.3410    0.4781   -0.1915 O   0  0  0  0  0  0  0  0  0  0  0  0
   -0.6415    1.0267    1.0713 C   0  0  0  0  0  0  0  0  0  0  0  0
   -2.0983    1.5226    1.0827 C   0  0  0  0  0  0  0  0  0  0  0  0
   -3.0751    0.3658    0.7394 C   0  0  0  0  0  0  0  0  0  0  0  0
   -4.4787    0.6309    1.2923 C   0  0  0  0  0  0  0  0  0  0  0  0
   -4.4719    0.7321    2.8309 C   0  0  0  0  0  0  0  0  0  0  0  0
   -3.1414    1.2596    3.4050 C   0  0  0  0  0  0  0  0  0  0  0  0
   -2.4439    2.2151    2.4302 C   0  0  0  0  0  0  0  0  0  0  0  0
    1.6691   -0.6759   -1.7301 O   0  0  0  0  0  0  0  0  0  0  0  0
    2.9077   -1.2298   -2.0962 C   0  0  0  0  0  0  0  0  0  0  0  0
    3.1178   -1.6217   -3.4415 C   0  0  0  0  0  0  0  0  0  0  0  0
    2.0776   -1.4704   -4.4842 C   0  0  0  0  0  0  0  0  0  0  0  0
    0.9453   -0.9826   -4.2277 O   0  0  0  0  0  0  0  0  0  0  0  0
    4.3537   -2.1757   -3.8158 C   0  0  0  0  0  0  0  0  0  0  0  0
    5.3721   -2.3426   -2.8771 C   0  0  0  0  0  0  0  0  0  0  0  0
    5.1704   -1.9591   -1.5532 C   0  0  0  0  0  0  0  0  0  0  0  0
    3.9499   -1.4069   -1.1612 C   0  0  0  0  0  0  0  0  0  0  0  0
    2.2866    1.7466   -0.3677 H   0  0  0  0  0  0  0  0  0  0  0  0
    0.0261    1.8945    1.2754 H   0  0  0  0  0  0  0  0  0  0  0  0
   -0.5168    0.2694    1.8796 H   0  0  0  0  0  0  0  0  0  0  0  0
   -2.1901    2.2941    0.2851 H   0  0  0  0  0  0  0  0  0  0  0  0
   -2.7085   -0.5961    1.1629 H   0  0  0  0  0  0  0  0  0  0  0  0
   -3.1326    0.2439   -0.3642 H   0  0  0  0  0  0  0  0  0  0  0  0
   -4.8642    1.5799    0.8583 H   0  0  0  0  0  0  0  0  0  0  0  0
   -5.1642   -0.1852    0.9770 H   0  0  0  0  0  0  0  0  0  0  0  0
   -4.6736   -0.2704    3.2673 H   0  0  0  0  0  0  0  0  0  0  0  0
   -5.3011    1.4023    3.1461 H   0  0  0  0  0  0  0  0  0  0  0  0
   -2.4637    0.4044    3.6202 H   0  0  0  0  0  0  0  0  0  0  0  0
   -3.3347    1.7834    4.3661 H   0  0  0  0  0  0  0  0  0  0  0  0
   -3.1242    3.0737    2.2350 H   0  0  0  0  0  0  0  0  0  0  0  0
   -1.5344    2.6348    2.9127 H   0  0  0  0  0  0  0  0  0  0  0  0
    2.2861   -1.7848   -5.4991 H   0  0  0  0  0  0  0  0  0  0  0  0
    4.5318   -2.4808   -4.8400 H   0  0  0  0  0  0  0  0  0  0  0  0
    6.3199   -2.7706   -3.1774 H   0  0  0  0  0  0  0  0  0  0  0  0
    5.9624   -2.0901   -0.8271 H   0  0  0  0  0  0  0  0  0  0  0  0
    3.8333   -1.1232   -0.1259 H   0  0  0  0  0  0  0  0  0  0  0  0
  2  1  1  1
  2  3  2  0
  2  4  1  0
  4  5  1  0
  5  6  1  0
  6  7  1  0
  7  8  1  0
  8  9  1  0
  9 10  1  0
 10 11  1  0
  2 12  1  0
 12 13  1  0
 13 14  2  0
 14 15  1  0
 15 16  2  0
 14 17  1  0
 17 18  2  0
 18 19  1  0
 19 20  2  0
 11  6  1  0
 20 13  1  0
  1 21  1  0
  5 22  1  0
  5 23  1  0
  6 24  1  0
  7 25  1  0
  7 26  1  0
  8 27  1  0
  8 28  1  0
  9 29  1  0
  9 30  1  0
 10 31  1  0
 10 32  1  0
 11 33  1  0
 11 34  1  0
 15 35  1  0
 17 36  1  0
 18 37  1  0
 19 38  1  0
 20 39  1  0
M  END
$$$$
