
     RDKit          3D

 65 67  0  0  0  0  0  0  0  0999 V2000
   -4.0188   -0.1283    0.9851 C   0  0  2  0  0  0  0  0  0  0  0  0
   -4.3190    1.2005    0.3180 C   0  0  0  0  0  0  0  0  0  0  0  0
   -2.9577    1.5680   -0.3111 C   0  0  2  0  0  0  0  0  0  0  0  0
   -2.2524    0.2910   -0.5018 N   0  0  0  0  0  0  0  0  0  0  0  0
   -1.2342    0.0873   -1.5039 C   0  0  0  0  0  0  0  0  0  0  0  0
   -1.0695   -1.0606   -2.0009 O   0  0  0  0  0  0  0  0  0  0  0  0
   -0.3489    1.2136   -1.9855 C   0  0  2  0  0  0  0  0  0  0  0  0
   -0.7104    1.5522   -3.4362 C   0  0  0  0  0  0  0  0  0  0  0  0
    1.0650    0.8052   -1.8911 N   0  0  0  0  0  0  0  0  0  0  0  0
    1.5625    0.8253   -0.4993 C   0  0  1  0  0  0  0  0  0  0  0  0
    2.7846   -0.0980   -0.3683 C   0  0  0  0  0  0  0  0  0  0  0  0
    2.4126   -1.5661   -0.6193 C   0  0  0  0  0  0  0  0  0  0  0  0
    3.6150   -2.4535   -0.4427 C   0  0  0  0  0  0  0  0  0  0  0  0
    3.9198   -2.9915    0.8189 C   0  0  0  0  0  0  0  0  0  0  0  0
    5.0558   -3.7893    0.9882 C   0  0  0  0  0  0  0  0  0  0  0  0
    5.8989   -4.0470   -0.0964 C   0  0  0  0  0  0  0  0  0  0  0  0
    5.6097   -3.5039   -1.3513 C   0  0  0  0  0  0  0  0  0  0  0  0
    4.4747   -2.7056   -1.5249 C   0  0  0  0  0  0  0  0  0  0  0  0
    1.9179    2.2247   -0.0641 C   0  0  0  0  0  0  0  0  0  0  0  0
    2.8087    2.8731   -0.6797 O   0  0  0  0  0  0  0  0  0  0  0  0
    1.2480    2.7923    1.0252 O   0  0  0  0  0  0  0  0  0  0  0  0
    1.5421    4.0888    1.5403 C   0  0  0  0  0  0  0  0  0  0  0  0
    2.8350    4.0662    2.3471 C   0  0  0  0  0  0  0  0  0  0  0  0
   -3.0791   -0.7984    0.0041 C   0  0  1  0  0  0  0  0  0  0  0  0
   -2.3505   -1.9336    0.7327 C   0  0  0  0  0  0  0  0  0  0  0  0
   -3.4071   -2.9650    1.1979 C   0  0  0  0  0  0  0  0  0  0  0  0
   -4.5737   -2.3293    2.0010 C   0  0  0  0  0  0  0  0  0  0  0  0
   -5.1696   -1.0751    1.3186 C   0  0  0  0  0  0  0  0  0  0  0  0
   -2.1780    2.4767    0.6000 C   0  0  0  0  0  0  0  0  0  0  0  0
   -2.1110    3.8377    0.3204 O   0  0  0  0  0  0  0  0  0  0  0  0
   -1.6126    2.0189    1.6297 O   0  0  0  0  0  0  0  0  0  0  0  0
   -3.4807    0.1058    1.9350 H   0  0  0  0  0  0  0  0  0  0  0  0
   -5.0814    1.0630   -0.4809 H   0  0  0  0  0  0  0  0  0  0  0  0
   -4.6833    1.9562    1.0488 H   0  0  0  0  0  0  0  0  0  0  0  0
   -3.1249    2.0672   -1.2909 H   0  0  0  0  0  0  0  0  0  0  0  0
   -0.5111    2.1331   -1.3876 H   0  0  0  0  0  0  0  0  0  0  0  0
   -1.7869    1.8163   -3.5134 H   0  0  0  0  0  0  0  0  0  0  0  0
   -0.5006    0.6889   -4.1040 H   0  0  0  0  0  0  0  0  0  0  0  0
   -0.1159    2.4241   -3.7832 H   0  0  0  0  0  0  0  0  0  0  0  0
    1.6624    1.4295   -2.4839 H   0  0  0  0  0  0  0  0  0  0  0  0
    0.7837    0.4393    0.1975 H   0  0  0  0  0  0  0  0  0  0  0  0
    3.2030   -0.0049    0.6592 H   0  0  0  0  0  0  0  0  0  0  0  0
    3.5702    0.2147   -1.0919 H   0  0  0  0  0  0  0  0  0  0  0  0
    1.6098   -1.8769    0.0854 H   0  0  0  0  0  0  0  0  0  0  0  0
    2.0102   -1.6852   -1.6491 H   0  0  0  0  0  0  0  0  0  0  0  0
    3.2797   -2.7918    1.6694 H   0  0  0  0  0  0  0  0  0  0  0  0
    5.2844   -4.2050    1.9610 H   0  0  0  0  0  0  0  0  0  0  0  0
    6.7784   -4.6636    0.0366 H   0  0  0  0  0  0  0  0  0  0  0  0
    6.2669   -3.6987   -2.1889 H   0  0  0  0  0  0  0  0  0  0  0  0
    4.2667   -2.2830   -2.5002 H   0  0  0  0  0  0  0  0  0  0  0  0
    1.6143    4.8273    0.7125 H   0  0  0  0  0  0  0  0  0  0  0  0
    0.7115    4.3997    2.2082 H   0  0  0  0  0  0  0  0  0  0  0  0
    2.7566    3.3212    3.1669 H   0  0  0  0  0  0  0  0  0  0  0  0
    3.0173    5.0689    2.7878 H   0  0  0  0  0  0  0  0  0  0  0  0
    3.6940    3.8018    1.6959 H   0  0  0  0  0  0  0  0  0  0  0  0
   -3.6493   -1.2235   -0.8560 H   0  0  0  0  0  0  0  0  0  0  0  0
   -1.7835   -1.5420    1.6058 H   0  0  0  0  0  0  0  0  0  0  0  0
   -1.6323   -2.4366    0.0528 H   0  0  0  0  0  0  0  0  0  0  0  0
   -3.8271   -3.4785    0.3053 H   0  0  0  0  0  0  0  0  0  0  0  0
   -2.9113   -3.7376    1.8238 H   0  0  0  0  0  0  0  0  0  0  0  0
   -5.3762   -3.0849    2.1408 H   0  0  0  0  0  0  0  0  0  0  0  0
   -4.2006   -2.0490    3.0106 H   0  0  0  0  0  0  0  0  0  0  0  0
   -5.8790   -0.5750    2.0124 H   0  0  0  0  0  0  0  0  0  0  0  0
   -5.7218   -1.3654    0.3978 H   0  0  0  0  0  0  0  0  0  0  0  0
   -1.6009    4.4683    0.9270 H   0  0  0  0  0  0  0  0  0  0  0  0
  1  2  1  0
  2  3  1  0
  3  4  1  0
  4  5  1  0
  5  6  2  0
  5  7  1  0
  7  8  1  0
  7  9  1  0
  9 10  1  0
 10 11  1  0
 11 12  1  0
 12 13  1  0
 13 14  2  0
 14 15  1  0
 15 16  2  0
 16 17  1  0
 17 18  2  0
 10 19  1  0
 19 20  2  0
 19 21  1  0
 21 22  1  0
 22 23  1  0
  4 24  1  0
 24 25  1  0
 25 26  1  0
 26 27  1  0
 27 28  1  0
  3 29  1  0
 29 30  1  0
 29 31  2  0
 24  1  1  0
 28  1  1  0
 18 13  1  0
  1 32  1  1
  2 33  1  0
  2 34  1  0
  3 35  1  6
  7 36  1  1
  8 37  1  0
  8 38  1  0
  8 39  1  0
  9 40  1  0
 10 41  1  1
 11 42  1  0
 11 43  1  0
 12 44  1  0
 12 45  1  0
 14 46  1  0
 15 47  1  0
 16 48  1  0
 17 49  1  0
 18 50  1  0
 22 51  1  0
 22 52  1  0
 23 53  1  0
 23 54  1  0
 23 55  1  0
 24 56  1  6
 25 57  1  0
 25 58  1  0
 26 59  1  0
 26 60  1  0
 27 61  1  0
 27 62  1  0
 28 63  1  0
 28 64  1  0
 30 65  1  0
M  END
$$$$
