
     RDKit          3D

 45 48  0  0  0  0  0  0  0  0999 V2000
   -1.6689   -0.2344    1.8005 N   0  0  0  0  0  4  0  0  0  0  0  0
   -1.0907   -0.7691    0.5491 C   0  0  0  0  0  0  0  0  0  0  0  0
   -2.2029   -1.4898   -0.2772 C   0  0  0  0  0  0  0  0  0  0  0  0
   -3.3703   -0.6061   -0.6555 C   0  0  0  0  0  0  0  0  0  0  0  0
   -3.3563    0.1140   -1.8625 C   0  0  0  0  0  0  0  0  0  0  0  0
   -4.4334    0.9360   -2.2070 C   0  0  0  0  0  0  0  0  0  0  0  0
   -5.5356    1.0428   -1.3531 C   0  0  0  0  0  0  0  0  0  0  0  0
   -6.8856    2.0754   -1.7867 Cl  0  0  0  0  0  0  0  0  0  0  0  0
   -5.5612    0.3235   -0.1541 C   0  0  0  0  0  0  0  0  0  0  0  0
   -4.4856   -0.4993    0.1932 C   0  0  0  0  0  0  0  0  0  0  0  0
   -0.4663    0.3833   -0.2960 C   0  0  0  0  0  0  0  0  0  0  0  0
    0.8123    0.9567    0.3269 C   0  0  0  0  0  0  0  0  0  0  0  0
    1.7518   -0.1312    0.6077 N   0  0  0  0  0  0  0  0  0  0  0  0
    1.2818   -1.2174    1.4686 C   0  0  0  0  0  0  0  0  0  0  0  0
    0.0050   -1.8301    0.8794 C   0  0  0  0  0  0  0  0  0  0  0  0
    2.9296   -0.3061   -0.1982 C   0  0  0  0  0  0  0  0  0  0  0  0
    3.8717    0.7090   -0.3621 C   0  0  0  0  0  0  0  0  0  0  0  0
    3.9813    1.9831    0.1564 C   0  0  0  0  0  0  0  0  0  0  0  0
    5.1755    2.4824   -0.3597 C   0  0  0  0  0  0  0  0  0  0  0  0
    5.7805    1.5651   -1.1498 N   0  0  0  0  0  0  0  0  0  0  0  0
    4.9737    0.4942   -1.1334 C   0  0  0  0  0  0  0  0  0  0  0  0
    5.2010   -0.6881   -1.7544 N   0  0  0  0  0  0  0  0  0  0  0  0
    4.2863   -1.6901   -1.5961 C   0  0  0  0  0  0  0  0  0  0  0  0
    3.1708   -1.4974   -0.8242 N   0  0  0  0  0  0  0  0  0  0  0  0
   -2.3485    0.5333    1.5971 H   0  0  0  0  0  0  0  0  0  0  0  0
   -0.9342    0.1617    2.4263 H   0  0  0  0  0  0  0  0  0  0  0  0
   -2.1654   -0.9913    2.3251 H   0  0  0  0  0  0  0  0  0  0  0  0
   -1.7629   -1.9175   -1.2056 H   0  0  0  0  0  0  0  0  0  0  0  0
   -2.5857   -2.3600    0.3014 H   0  0  0  0  0  0  0  0  0  0  0  0
   -2.5113    0.0403   -2.5355 H   0  0  0  0  0  0  0  0  0  0  0  0
   -4.4101    1.4887   -3.1375 H   0  0  0  0  0  0  0  0  0  0  0  0
   -6.4133    0.4011    0.5091 H   0  0  0  0  0  0  0  0  0  0  0  0
   -4.5203   -1.0502    1.1248 H   0  0  0  0  0  0  0  0  0  0  0  0
   -0.2109    0.0032   -1.3101 H   0  0  0  0  0  0  0  0  0  0  0  0
   -1.1968    1.2110   -0.4222 H   0  0  0  0  0  0  0  0  0  0  0  0
    1.2508    1.6933   -0.3800 H   0  0  0  0  0  0  0  0  0  0  0  0
    0.5767    1.4977    1.2675 H   0  0  0  0  0  0  0  0  0  0  0  0
    2.0589   -2.0064    1.5717 H   0  0  0  0  0  0  0  0  0  0  0  0
    1.0906   -0.8247    2.4888 H   0  0  0  0  0  0  0  0  0  0  0  0
    0.2915   -2.3728   -0.0490 H   0  0  0  0  0  0  0  0  0  0  0  0
   -0.3957   -2.5839    1.5919 H   0  0  0  0  0  0  0  0  0  0  0  0
    3.3021    2.4849    0.8325 H   0  0  0  0  0  0  0  0  0  0  0  0
    5.5832    3.4633   -0.1543 H   0  0  0  0  0  0  0  0  0  0  0  0
    6.6910    1.6658   -1.6509 H   0  0  0  0  0  0  0  0  0  0  0  0
    4.4458   -2.6438   -2.0798 H   0  0  0  0  0  0  0  0  0  0  0  0
  1  2  1  0
  2  3  1  0
  3  4  1  0
  4  5  2  0
  5  6  1  0
  6  7  2  0
  7  8  1  0
  7  9  1  0
  9 10  2  0
  2 11  1  0
 11 12  1  0
 12 13  1  0
 13 14  1  0
 14 15  1  0
 13 16  1  0
 16 17  2  0
 17 18  1  0
 18 19  2  0
 19 20  1  0
 20 21  1  0
 21 22  2  0
 22 23  1  0
 23 24  2  0
 15  2  1  0
 24 16  1  0
 10  4  1  0
 21 17  1  0
  1 25  1  0
  1 26  1  0
  1 27  1  0
  3 28  1  0
  3 29  1  0
  5 30  1  0
  6 31  1  0
  9 32  1  0
 10 33  1  0
 11 34  1  0
 11 35  1  0
 12 36  1  0
 12 37  1  0
 14 38  1  0
 14 39  1  0
 15 40  1  0
 15 41  1  0
 18 42  1  0
 19 43  1  0
 20 44  1  0
 23 45  1  0
M  CHG  1   1   1
M  END
$$$$
