
     RDKit          3D

 21 20  0  0  0  0  0  0  0  0999 V2000
   -3.2533   -0.2658   -0.4701 C   0  0  0  0  0  0  0  0  0  0  0  0
   -2.2028    1.1326   -0.9113 S   0  0  0  0  0  4  0  0  0  0  0  0
   -2.2781    2.0522    0.3007 O   0  0  0  0  0  0  0  0  0  0  0  0
   -0.4976    0.5159   -0.9211 C   0  0  0  0  0  0  0  0  0  0  0  0
   -0.0708   -0.0399    0.4462 C   0  0  0  0  0  0  0  0  0  0  0  0
    1.3808   -0.5595    0.4349 C   0  0  2  0  0  0  0  0  0  0  0  0
    1.6783   -1.2358    1.6987 N   0  0  0  0  0  0  0  0  0  0  0  0
    2.3536    0.5694    0.2278 C   0  0  0  0  0  0  0  0  0  0  0  0
    3.0594    0.6636   -0.9676 O   0  0  0  0  0  0  0  0  0  0  0  0
    2.5185    1.4398    1.1249 O   0  0  0  0  0  0  0  0  0  0  0  0
   -3.0091   -1.1334   -1.1171 H   0  0  0  0  0  0  0  0  0  0  0  0
   -4.3160    0.0141   -0.6213 H   0  0  0  0  0  0  0  0  0  0  0  0
   -3.1016   -0.5406    0.5938 H   0  0  0  0  0  0  0  0  0  0  0  0
   -0.4152   -0.2790   -1.6926 H   0  0  0  0  0  0  0  0  0  0  0  0
    0.1651    1.3572   -1.2136 H   0  0  0  0  0  0  0  0  0  0  0  0
   -0.1806    0.7445    1.2266 H   0  0  0  0  0  0  0  0  0  0  0  0
   -0.7439   -0.8822    0.7117 H   0  0  0  0  0  0  0  0  0  0  0  0
    1.4951   -1.2910   -0.3979 H   0  0  0  0  0  0  0  0  0  0  0  0
    1.0537   -2.0709    1.7821 H   0  0  0  0  0  0  0  0  0  0  0  0
    2.6531   -1.6134    1.6488 H   0  0  0  0  0  0  0  0  0  0  0  0
    3.7116    1.4220   -1.1273 H   0  0  0  0  0  0  0  0  0  0  0  0
  2  1  1  1
  2  3  2  0
  2  4  1  0
  4  5  1  0
  5  6  1  0
  6  7  1  0
  6  8  1  0
  8  9  1  0
  8 10  2  0
  1 11  1  0
  1 12  1  0
  1 13  1  0
  4 14  1  0
  4 15  1  0
  5 16  1  0
  5 17  1  0
  6 18  1  6
  7 19  1  0
  7 20  1  0
  9 21  1  0
M  END
$$$$
