
     RDKit          3D

 49 52  0  0  0  0  0  0  0  0999 V2000
   -1.5478    1.1554    0.5425 C   0  0  2  0  0  0  0  0  0  0  0  0
   -2.1578    1.9146    1.7109 C   0  0  0  0  0  0  0  0  0  0  0  0
   -3.6712    1.6409    1.5796 C   0  0  0  0  0  0  0  0  0  0  0  0
   -3.8539    0.5859    0.4506 C   0  0  1  0  0  0  0  0  0  0  0  0
   -4.8721   -0.3205    0.8011 O   0  0  0  0  0  0  0  0  0  0  0  0
   -4.2360    1.2787   -0.8064 C   0  0  0  0  0  0  0  0  0  0  0  0
   -4.5439    1.8413   -1.8274 C   0  0  0  0  0  0  0  0  0  0  0  0
   -2.4477   -0.0878    0.3564 C   0  0  2  0  0  0  0  0  0  0  0  0
   -2.3050   -1.1247    1.5263 C   0  0  0  0  0  0  0  0  0  0  0  0
   -2.0920   -0.8404   -0.9760 C   0  0  0  0  0  0  0  0  0  0  0  0
   -0.8574   -0.2877   -1.7312 C   0  0  0  0  0  0  0  0  0  0  0  0
    0.3254    0.2673   -0.8539 C   0  0  2  0  0  0  0  0  0  0  0  0
    1.6047   -0.5269   -0.6980 C   0  0  0  0  0  0  0  0  0  0  0  0
    2.6125    0.0410    0.1268 C   0  0  0  0  0  0  0  0  0  0  0  0
    2.3841    1.3342    0.9148 C   0  0  0  0  0  0  0  0  0  0  0  0
    0.9158    1.8482    0.9782 C   0  0  0  0  0  0  0  0  0  0  0  0
   -0.0731    0.7505    0.5644 C   0  0  1  0  0  0  0  0  0  0  0  0
    3.8472   -0.6130    0.2592 C   0  0  0  0  0  0  0  0  0  0  0  0
    4.0845   -1.8387   -0.3877 C   0  0  0  0  0  0  0  0  0  0  0  0
    5.3034   -2.5247   -0.2771 O   0  0  0  0  0  0  0  0  0  0  0  0
    6.4187   -2.0677    0.4810 C   0  0  0  0  0  0  0  0  0  0  0  0
    3.0735   -2.4074   -1.1656 C   0  0  0  0  0  0  0  0  0  0  0  0
    1.8434   -1.7658   -1.3209 C   0  0  0  0  0  0  0  0  0  0  0  0
   -1.6702    1.8396   -0.3324 H   0  0  0  0  0  0  0  0  0  0  0  0
   -1.9397    3.0024    1.6352 H   0  0  0  0  0  0  0  0  0  0  0  0
   -1.7665    1.5372    2.6803 H   0  0  0  0  0  0  0  0  0  0  0  0
   -4.0529    1.2437    2.5461 H   0  0  0  0  0  0  0  0  0  0  0  0
   -4.2223    2.5847    1.3676 H   0  0  0  0  0  0  0  0  0  0  0  0
   -4.9166   -1.0085    0.0856 H   0  0  0  0  0  0  0  0  0  0  0  0
   -4.8130    2.3348   -2.7238 H   0  0  0  0  0  0  0  0  0  0  0  0
   -3.0780   -1.9168    1.4378 H   0  0  0  0  0  0  0  0  0  0  0  0
   -2.4157   -0.6644    2.5283 H   0  0  0  0  0  0  0  0  0  0  0  0
   -1.3361   -1.6633    1.4964 H   0  0  0  0  0  0  0  0  0  0  0  0
   -1.8931   -1.9184   -0.7869 H   0  0  0  0  0  0  0  0  0  0  0  0
   -2.9597   -0.8407   -1.6687 H   0  0  0  0  0  0  0  0  0  0  0  0
   -1.2402    0.5637   -2.3387 H   0  0  0  0  0  0  0  0  0  0  0  0
   -0.5237   -1.0126   -2.4962 H   0  0  0  0  0  0  0  0  0  0  0  0
    0.6501    1.1639   -1.4336 H   0  0  0  0  0  0  0  0  0  0  0  0
    2.7321    1.1663    1.9577 H   0  0  0  0  0  0  0  0  0  0  0  0
    3.0272    2.1309    0.4829 H   0  0  0  0  0  0  0  0  0  0  0  0
    0.7989    2.7306    0.3106 H   0  0  0  0  0  0  0  0  0  0  0  0
    0.6892    2.1875    2.0123 H   0  0  0  0  0  0  0  0  0  0  0  0
    0.0687   -0.0611    1.3062 H   0  0  0  0  0  0  0  0  0  0  0  0
    4.6120   -0.1660    0.8806 H   0  0  0  0  0  0  0  0  0  0  0  0
    6.1412   -1.9784    1.5525 H   0  0  0  0  0  0  0  0  0  0  0  0
    6.7683   -1.0876    0.0931 H   0  0  0  0  0  0  0  0  0  0  0  0
    7.2452   -2.8016    0.3883 H   0  0  0  0  0  0  0  0  0  0  0  0
    3.2435   -3.3579   -1.6558 H   0  0  0  0  0  0  0  0  0  0  0  0
    1.0964   -2.2607   -1.9195 H   0  0  0  0  0  0  0  0  0  0  0  0
  1  2  1  0
  2  3  1  0
  3  4  1  0
  4  5  1  0
  4  6  1  6
  6  7  3  0
  4  8  1  0
  8  9  1  1
  8 10  1  0
 10 11  1  0
 11 12  1  0
 12 13  1  0
 13 14  2  0
 14 15  1  0
 15 16  1  0
 16 17  1  0
 14 18  1  0
 18 19  2  0
 19 20  1  0
 20 21  1  0
 19 22  1  0
 22 23  2  0
  8  1  1  0
 17 12  1  0
 17  1  1  0
 23 13  1  0
  1 24  1  6
  2 25  1  0
  2 26  1  0
  3 27  1  0
  3 28  1  0
  5 29  1  0
  7 30  1  0
  9 31  1  0
  9 32  1  0
  9 33  1  0
 10 34  1  0
 10 35  1  0
 11 36  1  0
 11 37  1  0
 12 38  1  6
 15 39  1  0
 15 40  1  0
 16 41  1  0
 16 42  1  0
 17 43  1  1
 18 44  1  0
 21 45  1  0
 21 46  1  0
 21 47  1  0
 22 48  1  0
 23 49  1  0
M  END
$$$$
