
     RDKit          3D

 22 23  0  0  0  0  0  0  0  0999 V2000
    4.0686   -1.7262    0.0798 O   0  0  0  0  0  0  0  0  0  0  0  0
    3.8589   -0.4566   -0.4497 C   0  0  0  0  0  0  0  0  0  0  0  0
    4.8284    0.1935   -0.9243 O   0  0  0  0  0  0  0  0  0  0  0  0
    2.5103    0.1222   -0.4546 C   0  0  0  0  0  0  0  0  0  0  0  0
    1.3554   -0.4541    0.0279 C   0  0  0  0  0  0  0  0  0  0  0  0
    0.3396    0.4162   -0.1639 N   0  0  0  0  0  0  0  0  0  0  0  0
    0.8061    1.5154   -0.7418 N   0  0  0  0  0  0  0  0  0  0  0  0
    2.1302    1.3600   -0.9322 C   0  0  0  0  0  0  0  0  0  0  0  0
   -1.0457    0.2341    0.1977 C   0  0  0  0  0  0  0  0  0  0  0  0
   -1.5472   -1.0303    0.5689 C   0  0  0  0  0  0  0  0  0  0  0  0
   -2.8937   -1.1856    0.9134 C   0  0  0  0  0  0  0  0  0  0  0  0
   -3.7555   -0.0875    0.8901 C   0  0  0  0  0  0  0  0  0  0  0  0
   -3.2737    1.1690    0.5192 C   0  0  0  0  0  0  0  0  0  0  0  0
   -1.9288    1.3307    0.1730 C   0  0  0  0  0  0  0  0  0  0  0  0
    4.9938   -2.1386    0.0900 H   0  0  0  0  0  0  0  0  0  0  0  0
    1.2793   -1.4250    0.4978 H   0  0  0  0  0  0  0  0  0  0  0  0
    2.7730    2.1030   -1.3855 H   0  0  0  0  0  0  0  0  0  0  0  0
   -0.9117   -1.9038    0.5818 H   0  0  0  0  0  0  0  0  0  0  0  0
   -3.2701   -2.1604    1.1956 H   0  0  0  0  0  0  0  0  0  0  0  0
   -4.7972   -0.2108    1.1570 H   0  0  0  0  0  0  0  0  0  0  0  0
   -3.9428    2.0197    0.4999 H   0  0  0  0  0  0  0  0  0  0  0  0
   -1.5772    2.3151   -0.1077 H   0  0  0  0  0  0  0  0  0  0  0  0
  1  2  1  0
  2  3  2  0
  2  4  1  0
  4  5  2  0
  5  6  1  0
  6  7  1  0
  7  8  2  0
  6  9  1  0
  9 10  2  0
 10 11  1  0
 11 12  2  0
 12 13  1  0
 13 14  2  0
  8  4  1  0
 14  9  1  0
  1 15  1  0
  5 16  1  0
  8 17  1  0
 10 18  1  0
 11 19  1  0
 12 20  1  0
 13 21  1  0
 14 22  1  0
M  END
$$$$
