
     RDKit          3D

 42 45  0  0  0  0  0  0  0  0999 V2000
    6.2516   -1.4056    1.7448 C   0  0  2  0  0  0  0  0  0  0  0  0
    7.8383   -2.0937    1.3277 Cl  0  0  0  0  0  0  0  0  0  0  0  0
    4.9056   -2.5586    1.1878 S   0  0  0  0  0  0  0  0  0  0  0  0
    4.3263   -1.2530    0.1419 C   0  0  0  0  0  0  0  0  0  0  0  0
    3.1257   -1.0356   -0.2773 N   0  0  0  0  0  0  0  0  0  0  0  0
    3.1156    0.3513   -0.6653 C   0  0  0  0  0  0  0  0  0  0  0  0
    4.2692    0.9670   -0.3750 C   0  0  0  0  0  0  0  0  0  0  0  0
    5.0880   -0.0778    0.1949 C   0  0  0  0  0  0  0  0  0  0  0  0
    6.0773   -0.0736    1.0580 C   0  0  0  0  0  0  0  0  0  0  0  0
    1.9309    1.0207   -1.2304 C   0  0  0  0  0  0  0  0  0  0  0  0
    1.9807    2.2508   -1.5060 O   0  0  0  0  0  0  0  0  0  0  0  0
    0.7256    0.2782   -1.4694 N   0  0  0  0  0  0  0  0  0  0  0  0
   -0.5004    0.9178   -1.9595 C   0  0  1  0  0  0  0  0  0  0  0  0
   -1.5045   -0.1313   -2.4557 C   0  0  0  0  0  0  0  0  0  0  0  0
   -2.0810   -0.9332   -1.3160 C   0  0  0  0  0  0  0  0  0  0  0  0
   -2.3076   -0.3249   -0.0568 C   0  0  0  0  0  0  0  0  0  0  0  0
   -2.8995   -1.0964    0.9674 C   0  0  0  0  0  0  0  0  0  0  0  0
   -3.2619   -2.4260    0.7394 C   0  0  0  0  0  0  0  0  0  0  0  0
   -3.0471   -3.0086   -0.5082 C   0  0  0  0  0  0  0  0  0  0  0  0
   -2.4656   -2.2652   -1.5345 C   0  0  0  0  0  0  0  0  0  0  0  0
   -1.9231    1.0620    0.1532 N   0  0  0  0  0  0  0  0  0  0  0  0
   -2.3956    1.8305    1.3191 C   0  0  0  0  0  0  0  0  0  0  0  0
   -3.8623    2.1196    1.1965 C   0  0  0  0  0  0  0  0  0  0  0  0
   -4.7722    1.7167    2.2201 N   0  0  0  0  0  0  0  0  0  0  0  0
   -4.2937    2.7375    0.1869 O   0  0  0  0  0  0  0  0  0  0  0  0
   -1.1291    1.7213   -0.8580 C   0  0  0  0  0  0  0  0  0  0  0  0
   -0.9334    2.9667   -0.8166 O   0  0  0  0  0  0  0  0  0  0  0  0
    6.1847   -1.2687    2.8441 H   0  0  0  0  0  0  0  0  0  0  0  0
    4.5025    2.0184   -0.4838 H   0  0  0  0  0  0  0  0  0  0  0  0
    6.6236    0.8202    1.3303 H   0  0  0  0  0  0  0  0  0  0  0  0
    0.7248   -0.7493   -1.2766 H   0  0  0  0  0  0  0  0  0  0  0  0
   -0.2498    1.5800   -2.8183 H   0  0  0  0  0  0  0  0  0  0  0  0
   -0.9994   -0.7975   -3.1896 H   0  0  0  0  0  0  0  0  0  0  0  0
   -2.3394    0.3790   -2.9836 H   0  0  0  0  0  0  0  0  0  0  0  0
   -3.0872   -0.6897    1.9487 H   0  0  0  0  0  0  0  0  0  0  0  0
   -3.7146   -3.0058    1.5335 H   0  0  0  0  0  0  0  0  0  0  0  0
   -3.3363   -4.0371   -0.6818 H   0  0  0  0  0  0  0  0  0  0  0  0
   -2.3164   -2.7280   -2.5023 H   0  0  0  0  0  0  0  0  0  0  0  0
   -1.8570    2.7969    1.4127 H   0  0  0  0  0  0  0  0  0  0  0  0
   -2.1673    1.2855    2.2577 H   0  0  0  0  0  0  0  0  0  0  0  0
   -4.4338    1.2200    3.0737 H   0  0  0  0  0  0  0  0  0  0  0  0
   -5.7921    1.9196    2.1263 H   0  0  0  0  0  0  0  0  0  0  0  0
  1  2  1  0
  1  3  1  0
  3  4  1  0
  4  5  2  0
  5  6  1  0
  6  7  2  0
  7  8  1  0
  8  9  2  0
  6 10  1  0
 10 11  2  0
 10 12  1  0
 12 13  1  0
 13 14  1  0
 14 15  1  0
 15 16  2  0
 16 17  1  0
 17 18  2  0
 18 19  1  0
 19 20  2  0
 16 21  1  0
 21 22  1  0
 22 23  1  0
 23 24  1  0
 23 25  2  0
 21 26  1  0
 26 27  2  0
  9  1  1  0
 26 13  1  0
  8  4  1  0
 20 15  1  0
  1 28  1  1
  7 29  1  0
  9 30  1  0
 12 31  1  0
 13 32  1  6
 14 33  1  0
 14 34  1  0
 17 35  1  0
 18 36  1  0
 19 37  1  0
 20 38  1  0
 22 39  1  0
 22 40  1  0
 24 41  1  0
 24 42  1  0
M  END
$$$$
