
     RDKit          3D

109112  0  0  0  0  0  0  0  0999 V2000
    1.6741   -4.7834   -0.3898 C   0  0  0  0  0  0  0  0  0  0  0  0
    0.2210   -4.8428    0.0945 C   0  0  0  0  0  0  0  0  0  0  0  0
   -0.7310   -5.1533   -1.0695 C   0  0  0  0  0  0  0  0  0  0  0  0
   -0.2048   -3.5854    0.8938 C   0  0  0  0  0  0  0  0  0  0  0  0
   -0.1410   -2.2438    0.1221 C   0  0  2  0  0  0  0  0  0  0  0  0
    1.2435   -1.7886   -0.0285 N   0  0  0  0  0  0  0  0  0  0  0  0
    1.6751   -1.0037   -1.1528 C   0  0  0  0  0  0  0  0  0  0  0  0
    0.9226   -0.8690   -2.1558 O   0  0  0  0  0  0  0  0  0  0  0  0
    3.0203   -0.3188   -1.1478 C   0  0  2  0  0  0  0  0  0  0  0  0
    4.1807   -1.3286   -1.0821 C   0  0  0  0  0  0  0  0  0  0  0  0
    4.3073   -2.1486   -2.3734 C   0  0  0  0  0  0  0  0  0  0  0  0
    5.4951   -3.0702   -2.2982 C   0  0  0  0  0  0  0  0  0  0  0  0
    5.3551   -4.3693   -1.7823 C   0  0  0  0  0  0  0  0  0  0  0  0
    6.4674   -5.2105   -1.6803 C   0  0  0  0  0  0  0  0  0  0  0  0
    7.7270   -4.7584   -2.0830 C   0  0  0  0  0  0  0  0  0  0  0  0
    7.8769   -3.4626   -2.5849 C   0  0  0  0  0  0  0  0  0  0  0  0
    6.7671   -2.6183   -2.6885 C   0  0  0  0  0  0  0  0  0  0  0  0
    3.1034    0.6066   -0.0146 N   0  0  0  0  0  0  0  0  0  0  0  0
    3.8688    1.8188   -0.0632 C   0  0  0  0  0  0  0  0  0  0  0  0
    4.4816    2.1480   -1.1149 O   0  0  0  0  0  0  0  0  0  0  0  0
    3.9376    2.7075    1.1423 C   0  0  0  0  0  0  0  0  0  0  0  0
    4.4375    1.9563    2.3105 N   0  0  0  0  0  0  0  0  0  0  0  0
    4.1735    2.7076    3.5510 C   0  0  0  0  0  0  0  0  0  0  0  0
    4.7418    1.9415    4.7519 C   0  0  0  0  0  0  0  0  0  0  0  0
    6.1335    1.7360    4.6025 O   0  0  0  0  0  0  0  0  0  0  0  0
    6.3803    0.9601    3.4457 C   0  0  0  0  0  0  0  0  0  0  0  0
    5.8842    1.6867    2.1901 C   0  0  0  0  0  0  0  0  0  0  0  0
   -0.9217   -1.1813    0.8516 C   0  0  0  0  0  0  0  0  0  0  0  0
   -0.7328   -1.0049    2.0867 O   0  0  0  0  0  0  0  0  0  0  0  0
   -1.8456   -0.3468    0.1371 N   0  0  0  0  0  0  0  0  0  0  0  0
   -2.7118    0.6261    0.8165 C   0  0  1  0  0  0  0  0  0  0  0  0
   -1.9379    1.9081    1.1852 C   0  0  0  0  0  0  0  0  0  0  0  0
   -1.3091    2.5829   -0.0096 C   0  0  0  0  0  0  0  0  0  0  0  0
   -1.9964    3.5939   -0.7021 C   0  0  0  0  0  0  0  0  0  0  0  0
   -1.4205    4.1957   -1.8250 C   0  0  0  0  0  0  0  0  0  0  0  0
   -0.1560    3.7934   -2.2640 C   0  0  0  0  0  0  0  0  0  0  0  0
    0.5346    2.7896   -1.5800 C   0  0  0  0  0  0  0  0  0  0  0  0
   -0.0386    2.1869   -0.4565 C   0  0  0  0  0  0  0  0  0  0  0  0
   -3.9294    0.9433   -0.0180 C   0  0  0  0  0  0  0  0  0  0  0  0
   -3.8132    1.1054   -1.2637 O   0  0  0  0  0  0  0  0  0  0  0  0
   -5.2114    1.0951    0.6144 N   0  0  0  0  0  0  0  0  0  0  0  0
   -6.4475    1.4103   -0.1104 C   0  0  1  0  0  0  0  0  0  0  0  0
   -6.4046    2.8450   -0.6926 C   0  0  0  0  0  0  0  0  0  0  0  0
   -6.0910    3.9397    0.3566 C   0  0  0  0  0  0  0  0  0  0  0  0
   -5.8913    5.2910   -0.3423 C   0  0  0  0  0  0  0  0  0  0  0  0
   -7.1984    4.0593    1.4143 C   0  0  0  0  0  0  0  0  0  0  0  0
   -6.7191    0.3535   -1.1639 C   0  0  0  0  0  0  0  0  0  0  0  0
   -6.7698    0.6489   -2.3493 O   0  0  0  0  0  0  0  0  0  0  0  0
   -6.8843   -1.0859   -0.7634 C   0  0  1  0  0  0  0  0  0  0  0  0
   -5.7006   -2.0433   -0.8821 C   0  0  0  0  0  0  0  0  0  0  0  0
   -8.0137   -1.4478    0.1252 C   0  0  0  0  0  0  0  0  0  0  0  0
   -8.0740   -1.6422   -1.2713 O   0  0  0  0  0  0  0  0  0  0  0  0
    1.9881   -5.7818   -0.7622 H   0  0  0  0  0  0  0  0  0  0  0  0
    2.3504   -4.4968    0.4434 H   0  0  0  0  0  0  0  0  0  0  0  0
    1.7853   -4.0566   -1.2201 H   0  0  0  0  0  0  0  0  0  0  0  0
    0.1528   -5.6997    0.8015 H   0  0  0  0  0  0  0  0  0  0  0  0
   -1.7857   -5.1439   -0.7211 H   0  0  0  0  0  0  0  0  0  0  0  0
   -0.6147   -4.4209   -1.8952 H   0  0  0  0  0  0  0  0  0  0  0  0
   -0.5113   -6.1642   -1.4744 H   0  0  0  0  0  0  0  0  0  0  0  0
   -1.2490   -3.7491    1.2435 H   0  0  0  0  0  0  0  0  0  0  0  0
    0.4200   -3.5146    1.8117 H   0  0  0  0  0  0  0  0  0  0  0  0
   -0.6022   -2.3917   -0.8754 H   0  0  0  0  0  0  0  0  0  0  0  0
    1.8863   -1.8864    0.7896 H   0  0  0  0  0  0  0  0  0  0  0  0
    3.1118    0.2633   -2.0927 H   0  0  0  0  0  0  0  0  0  0  0  0
    4.0502   -2.0106   -0.2136 H   0  0  0  0  0  0  0  0  0  0  0  0
    5.1291   -0.7680   -0.9261 H   0  0  0  0  0  0  0  0  0  0  0  0
    4.4221   -1.4644   -3.2427 H   0  0  0  0  0  0  0  0  0  0  0  0
    3.3822   -2.7403   -2.5417 H   0  0  0  0  0  0  0  0  0  0  0  0
    4.3877   -4.7297   -1.4592 H   0  0  0  0  0  0  0  0  0  0  0  0
    6.3533   -6.2120   -1.2859 H   0  0  0  0  0  0  0  0  0  0  0  0
    8.5872   -5.4102   -2.0022 H   0  0  0  0  0  0  0  0  0  0  0  0
    8.8540   -3.1111   -2.8902 H   0  0  0  0  0  0  0  0  0  0  0  0
    6.8984   -1.6131   -3.0696 H   0  0  0  0  0  0  0  0  0  0  0  0
    2.6774    0.3353    0.9005 H   0  0  0  0  0  0  0  0  0  0  0  0
    2.9042    3.0734    1.3329 H   0  0  0  0  0  0  0  0  0  0  0  0
    4.5748    3.5979    0.9358 H   0  0  0  0  0  0  0  0  0  0  0  0
    3.0770    2.8238    3.6966 H   0  0  0  0  0  0  0  0  0  0  0  0
    4.6355    3.7207    3.5067 H   0  0  0  0  0  0  0  0  0  0  0  0
    4.5701    2.5404    5.6710 H   0  0  0  0  0  0  0  0  0  0  0  0
    4.2087    0.9723    4.8837 H   0  0  0  0  0  0  0  0  0  0  0  0
    7.4751    0.7987    3.3558 H   0  0  0  0  0  0  0  0  0  0  0  0
    5.9031   -0.0430    3.5297 H   0  0  0  0  0  0  0  0  0  0  0  0
    6.0796    1.0358    1.3102 H   0  0  0  0  0  0  0  0  0  0  0  0
    6.4573    2.6339    2.0648 H   0  0  0  0  0  0  0  0  0  0  0  0
   -1.8924   -0.4439   -0.9025 H   0  0  0  0  0  0  0  0  0  0  0  0
   -3.0713    0.1655    1.7631 H   0  0  0  0  0  0  0  0  0  0  0  0
   -2.6253    2.6156    1.6999 H   0  0  0  0  0  0  0  0  0  0  0  0
   -1.1458    1.6584    1.9239 H   0  0  0  0  0  0  0  0  0  0  0  0
   -2.9779    3.9109   -0.3761 H   0  0  0  0  0  0  0  0  0  0  0  0
   -1.9558    4.9722   -2.3560 H   0  0  0  0  0  0  0  0  0  0  0  0
    0.2882    4.2590   -3.1343 H   0  0  0  0  0  0  0  0  0  0  0  0
    1.5125    2.4775   -1.9219 H   0  0  0  0  0  0  0  0  0  0  0  0
    0.5023    1.4107    0.0660 H   0  0  0  0  0  0  0  0  0  0  0  0
   -5.2782    0.9604    1.6486 H   0  0  0  0  0  0  0  0  0  0  0  0
   -7.2952    1.3644    0.6049 H   0  0  0  0  0  0  0  0  0  0  0  0
   -5.6347    2.8886   -1.4931 H   0  0  0  0  0  0  0  0  0  0  0  0
   -7.3839    3.0690   -1.1713 H   0  0  0  0  0  0  0  0  0  0  0  0
   -5.1399    3.6911    0.8755 H   0  0  0  0  0  0  0  0  0  0  0  0
   -5.0687    5.2236   -1.0859 H   0  0  0  0  0  0  0  0  0  0  0  0
   -6.8212    5.6028   -0.8649 H   0  0  0  0  0  0  0  0  0  0  0  0
   -5.6168    6.0712    0.3994 H   0  0  0  0  0  0  0  0  0  0  0  0
   -6.9939    4.9170    2.0903 H   0  0  0  0  0  0  0  0  0  0  0  0
   -8.1877    4.2132    0.9325 H   0  0  0  0  0  0  0  0  0  0  0  0
   -7.2370    3.1477    2.0452 H   0  0  0  0  0  0  0  0  0  0  0  0
   -6.0204   -3.1011   -0.7647 H   0  0  0  0  0  0  0  0  0  0  0  0
   -4.9546   -1.8093   -0.0946 H   0  0  0  0  0  0  0  0  0  0  0  0
   -5.2223   -1.9263   -1.8771 H   0  0  0  0  0  0  0  0  0  0  0  0
   -8.7041   -0.6372    0.4393 H   0  0  0  0  0  0  0  0  0  0  0  0
   -7.9488   -2.4182    0.6606 H   0  0  0  0  0  0  0  0  0  0  0  0
  1  2  1  0
  2  3  1  0
  2  4  1  0
  4  5  1  0
  5  6  1  0
  6  7  1  0
  7  8  2  0
  7  9  1  0
  9 10  1  0
 10 11  1  0
 11 12  1  0
 12 13  2  0
 13 14  1  0
 14 15  2  0
 15 16  1  0
 16 17  2  0
  9 18  1  0
 18 19  1  0
 19 20  2  0
 19 21  1  0
 21 22  1  0
 22 23  1  0
 23 24  1  0
 24 25  1  0
 25 26  1  0
 26 27  1  0
  5 28  1  0
 28 29  2  0
 28 30  1  0
 30 31  1  0
 31 32  1  0
 32 33  1  0
 33 34  2  0
 34 35  1  0
 35 36  2  0
 36 37  1  0
 37 38  2  0
 31 39  1  0
 39 40  2  0
 39 41  1  0
 41 42  1  0
 42 43  1  0
 43 44  1  0
 44 45  1  0
 44 46  1  0
 42 47  1  0
 47 48  2  0
 47 49  1  0
 49 50  1  1
 49 51  1  0
 51 52  1  0
 17 12  1  0
 27 22  1  0
 38 33  1  0
 52 49  1  0
  1 53  1  0
  1 54  1  0
  1 55  1  0
  2 56  1  0
  3 57  1  0
  3 58  1  0
  3 59  1  0
  4 60  1  0
  4 61  1  0
  5 62  1  6
  6 63  1  0
  9 64  1  6
 10 65  1  0
 10 66  1  0
 11 67  1  0
 11 68  1  0
 13 69  1  0
 14 70  1  0
 15 71  1  0
 16 72  1  0
 17 73  1  0
 18 74  1  0
 21 75  1  0
 21 76  1  0
 23 77  1  0
 23 78  1  0
 24 79  1  0
 24 80  1  0
 26 81  1  0
 26 82  1  0
 27 83  1  0
 27 84  1  0
 30 85  1  0
 31 86  1  1
 32 87  1  0
 32 88  1  0
 34 89  1  0
 35 90  1  0
 36 91  1  0
 37 92  1  0
 38 93  1  0
 41 94  1  0
 42 95  1  1
 43 96  1  0
 43 97  1  0
 44 98  1  0
 45 99  1  0
 45100  1  0
 45101  1  0
 46102  1  0
 46103  1  0
 46104  1  0
 50105  1  0
 50106  1  0
 50107  1  0
 51108  1  0
 51109  1  0
M  END
$$$$
