
     RDKit          3D

 22 23  0  0  0  0  0  0  0  0999 V2000
   -3.3076    2.0589    0.1620 O   0  0  0  0  0  0  0  0  0  0  0  0
   -2.5674    0.8869    0.0212 C   0  0  0  0  0  0  0  0  0  0  0  0
   -1.1661    0.9175    0.0616 C   0  0  0  0  0  0  0  0  0  0  0  0
   -0.4146   -0.2657   -0.0855 C   0  0  0  0  0  0  0  0  0  0  0  0
   -1.1060   -1.4828   -0.2607 C   0  0  0  0  0  0  0  0  0  0  0  0
   -2.5029   -1.5088   -0.3000 C   0  0  0  0  0  0  0  0  0  0  0  0
   -3.2317   -0.3275   -0.1615 C   0  0  0  0  0  0  0  0  0  0  0  0
    1.0748   -0.2197   -0.0371 C   0  0  0  0  0  0  0  0  0  0  0  0
    1.8975   -1.2137   -0.4008 C   0  0  0  0  0  0  0  0  0  0  0  0
    3.3148   -0.8787   -0.2082 C   0  0  0  0  0  0  0  0  0  0  0  0
    4.2554   -1.6667   -0.4883 O   0  0  0  0  0  0  0  0  0  0  0  0
    3.5419    0.4188    0.3226 N   0  0  0  0  0  0  0  0  0  0  0  0
    2.0083    1.1551    0.5290 S   0  0  0  0  0  6  0  0  0  0  0  0
    1.7420    1.4736    1.9729 O   0  0  0  0  0  0  0  0  0  0  0  0
    1.8626    2.3591   -0.3582 O   0  0  0  0  0  0  0  0  0  0  0  0
   -2.8579    2.9570    0.2963 H   0  0  0  0  0  0  0  0  0  0  0  0
   -0.6752    1.8702    0.2024 H   0  0  0  0  0  0  0  0  0  0  0  0
   -0.5798   -2.4220   -0.3512 H   0  0  0  0  0  0  0  0  0  0  0  0
   -3.0218   -2.4493   -0.4336 H   0  0  0  0  0  0  0  0  0  0  0  0
   -4.3135   -0.3558   -0.1924 H   0  0  0  0  0  0  0  0  0  0  0  0
    1.5774   -2.1633   -0.8050 H   0  0  0  0  0  0  0  0  0  0  0  0
    4.4697    0.8567    0.5144 H   0  0  0  0  0  0  0  0  0  0  0  0
  1  2  1  0
  2  3  2  0
  3  4  1  0
  4  5  2  0
  5  6  1  0
  6  7  2  0
  4  8  1  0
  8  9  2  0
  9 10  1  0
 10 11  2  0
 10 12  1  0
 12 13  1  0
 13 14  2  0
 13 15  2  0
  7  2  1  0
 13  8  1  0
  1 16  1  0
  3 17  1  0
  5 18  1  0
  6 19  1  0
  7 20  1  0
  9 21  1  0
 12 22  1  0
M  END
$$$$
