
     RDKit          3D

 48 50  0  0  0  0  0  0  0  0999 V2000
   -1.0007   -2.8370   -0.8485 C   0  0  0  0  0  0  0  0  0  0  0  0
   -0.4771   -1.8217    0.1939 C   0  0  1  0  0  0  0  0  0  0  0  0
    0.5685   -0.8427   -0.3964 C   0  0  1  0  0  0  0  0  0  0  0  0
   -0.0805   -0.0755   -1.5795 C   0  0  0  0  0  0  0  0  0  0  0  0
   -1.4429    0.4875   -1.2553 C   0  0  0  0  0  0  0  0  0  0  0  0
   -1.9888    1.4386   -2.1317 C   0  0  0  0  0  0  0  0  0  0  0  0
   -3.2653    1.9535   -1.9167 C   0  0  0  0  0  0  0  0  0  0  0  0
   -4.0166    1.5257   -0.8206 C   0  0  0  0  0  0  0  0  0  0  0  0
   -5.2861    2.0490   -0.5843 O   0  0  0  0  0  0  0  0  0  0  0  0
   -3.4922    0.5699    0.0526 C   0  0  0  0  0  0  0  0  0  0  0  0
   -2.2150    0.0042   -0.1650 C   0  0  0  0  0  0  0  0  0  0  0  0
   -1.5952   -0.9596    0.8657 C   0  0  1  0  0  0  0  0  0  0  0  0
   -2.6643   -1.9081    1.4733 C   0  0  0  0  0  0  0  0  0  0  0  0
   -0.9709   -0.0865    2.0080 C   0  0  0  0  0  0  0  0  0  0  0  0
    0.5658   -0.0736    2.0255 C   0  0  0  0  0  0  0  0  0  0  0  0
    1.1592    0.0291    0.6725 N   0  0  0  0  0  0  0  0  0  0  0  0
    1.6284    1.3857    0.3163 C   0  0  0  0  0  0  0  0  0  0  0  0
    2.7897    1.3255   -0.6472 C   0  0  0  0  0  0  0  0  0  0  0  0
    3.9875    0.7723   -0.3561 C   0  0  0  0  0  0  0  0  0  0  0  0
    4.2712    0.1448    0.9887 C   0  0  0  0  0  0  0  0  0  0  0  0
    5.0663    0.7978   -1.4075 C   0  0  0  0  0  0  0  0  0  0  0  0
   -1.5042   -3.6847   -0.3380 H   0  0  0  0  0  0  0  0  0  0  0  0
   -1.7277   -2.3743   -1.5477 H   0  0  0  0  0  0  0  0  0  0  0  0
   -0.1559   -3.2583   -1.4335 H   0  0  0  0  0  0  0  0  0  0  0  0
    0.0292   -2.4403    0.9687 H   0  0  0  0  0  0  0  0  0  0  0  0
    1.4039   -1.4452   -0.8162 H   0  0  0  0  0  0  0  0  0  0  0  0
   -0.2038   -0.7775   -2.4317 H   0  0  0  0  0  0  0  0  0  0  0  0
    0.5819    0.7128   -1.9816 H   0  0  0  0  0  0  0  0  0  0  0  0
   -1.4211    1.7827   -2.9878 H   0  0  0  0  0  0  0  0  0  0  0  0
   -3.6674    2.6904   -2.6002 H   0  0  0  0  0  0  0  0  0  0  0  0
   -5.6948    2.7453   -1.1968 H   0  0  0  0  0  0  0  0  0  0  0  0
   -4.0881    0.2908    0.9089 H   0  0  0  0  0  0  0  0  0  0  0  0
   -3.3318   -1.3748    2.1820 H   0  0  0  0  0  0  0  0  0  0  0  0
   -2.1778   -2.7272    2.0457 H   0  0  0  0  0  0  0  0  0  0  0  0
   -3.2949   -2.3584    0.6772 H   0  0  0  0  0  0  0  0  0  0  0  0
   -1.3210    0.9684    1.9454 H   0  0  0  0  0  0  0  0  0  0  0  0
   -1.3001   -0.4437    3.0090 H   0  0  0  0  0  0  0  0  0  0  0  0
    0.9123    0.7412    2.6979 H   0  0  0  0  0  0  0  0  0  0  0  0
    0.9325   -1.0093    2.4996 H   0  0  0  0  0  0  0  0  0  0  0  0
    1.9815    1.9393    1.2125 H   0  0  0  0  0  0  0  0  0  0  0  0
    0.7965    1.9897   -0.1031 H   0  0  0  0  0  0  0  0  0  0  0  0
    2.6503    1.7885   -1.6207 H   0  0  0  0  0  0  0  0  0  0  0  0
    5.3282   -0.1838    1.0681 H   0  0  0  0  0  0  0  0  0  0  0  0
    4.0833    0.8774    1.8011 H   0  0  0  0  0  0  0  0  0  0  0  0
    3.6285   -0.7474    1.1363 H   0  0  0  0  0  0  0  0  0  0  0  0
    5.3050    1.8489   -1.6752 H   0  0  0  0  0  0  0  0  0  0  0  0
    4.7169    0.2622   -2.3157 H   0  0  0  0  0  0  0  0  0  0  0  0
    5.9974    0.3083   -1.0536 H   0  0  0  0  0  0  0  0  0  0  0  0
  1  2  1  0
  2  3  1  0
  3  4  1  0
  4  5  1  0
  5  6  2  0
  6  7  1  0
  7  8  2  0
  8  9  1  0
  8 10  1  0
 10 11  2  0
 11 12  1  0
 12 13  1  1
 12 14  1  0
 14 15  1  0
 15 16  1  0
 16 17  1  0
 17 18  1  0
 18 19  2  3
 19 20  1  0
 19 21  1  0
 12  2  1  0
 16  3  1  0
 11  5  1  0
  1 22  1  0
  1 23  1  0
  1 24  1  0
  2 25  1  1
  3 26  1  6
  4 27  1  0
  4 28  1  0
  6 29  1  0
  7 30  1  0
  9 31  1  0
 10 32  1  0
 13 33  1  0
 13 34  1  0
 13 35  1  0
 14 36  1  0
 14 37  1  0
 15 38  1  0
 15 39  1  0
 17 40  1  0
 17 41  1  0
 18 42  1  0
 20 43  1  0
 20 44  1  0
 20 45  1  0
 21 46  1  0
 21 47  1  0
 21 48  1  0
M  END
$$$$
