
     RDKit          3D

 61 64  0  0  0  0  0  0  0  0999 V2000
   -6.9563   -2.0562    0.6180 C   0  0  1  0  0  0  0  0  0  0  0  0
   -7.6660   -3.0621   -0.2865 C   0  0  0  0  0  0  0  0  0  0  0  0
   -5.7202   -1.4758   -0.0903 C   0  0  0  0  0  0  0  0  0  0  0  0
   -5.1418   -0.4038    0.7278 N   0  0  0  0  0  0  0  0  0  0  0  0
   -6.0685    0.5767    1.3003 C   0  0  0  0  0  0  0  0  0  0  0  0
   -7.2823   -0.1494    1.9063 C   0  0  1  0  0  0  0  0  0  0  0  0
   -8.3349    0.8603    2.3598 C   0  0  0  0  0  0  0  0  0  0  0  0
   -7.8645   -1.0211    0.9527 O   0  0  0  0  0  0  0  0  0  0  0  0
   -3.7480   -0.0644    0.5994 C   0  0  0  0  0  0  0  0  0  0  0  0
   -2.7547   -1.0526    0.6731 C   0  0  0  0  0  0  0  0  0  0  0  0
   -1.4125   -0.6887    0.5569 C   0  0  0  0  0  0  0  0  0  0  0  0
   -1.0592    0.6509    0.3578 C   0  0  0  0  0  0  0  0  0  0  0  0
    0.3286    1.0119    0.2642 N   0  0  0  0  0  0  0  0  0  0  0  0
    0.8403    2.0305   -0.6126 C   0  0  0  0  0  0  0  0  0  0  0  0
    0.0638    2.6814   -1.3627 O   0  0  0  0  0  0  0  0  0  0  0  0
    2.2864    2.3352   -0.6406 C   0  0  0  0  0  0  0  0  0  0  0  0
    2.6792    3.6688   -0.4532 C   0  0  0  0  0  0  0  0  0  0  0  0
    4.0273    4.0153   -0.4307 C   0  0  0  0  0  0  0  0  0  0  0  0
    5.0041    3.0355   -0.5842 C   0  0  0  0  0  0  0  0  0  0  0  0
    4.6460    1.6933   -0.7837 C   0  0  0  0  0  0  0  0  0  0  0  0
    3.2726    1.3350   -0.8580 C   0  0  0  0  0  0  0  0  0  0  0  0
    2.8731   -0.0832   -1.2075 C   0  0  0  0  0  0  0  0  0  0  0  0
    5.7298    0.6911   -0.9122 C   0  0  0  0  0  0  0  0  0  0  0  0
    6.6977    0.8225   -1.9192 C   0  0  0  0  0  0  0  0  0  0  0  0
    7.7261   -0.1168   -2.0357 C   0  0  0  0  0  0  0  0  0  0  0  0
    7.8107   -1.1954   -1.1474 C   0  0  0  0  0  0  0  0  0  0  0  0
    8.8641   -2.1092   -1.3130 O   0  0  0  0  0  0  0  0  0  0  0  0
    9.0942   -3.2574   -0.4994 C   0  0  0  0  0  0  0  0  0  0  0  0
    8.0119   -4.1161   -0.5692 F   0  0  0  0  0  0  0  0  0  0  0  0
   10.2164   -3.9168   -0.9620 F   0  0  0  0  0  0  0  0  0  0  0  0
    9.3104   -2.8763    0.8128 F   0  0  0  0  0  0  0  0  0  0  0  0
    6.8460   -1.3213   -0.1289 C   0  0  0  0  0  0  0  0  0  0  0  0
    5.8173   -0.3819   -0.0120 C   0  0  0  0  0  0  0  0  0  0  0  0
   -2.0789    1.6154    0.3277 C   0  0  0  0  0  0  0  0  0  0  0  0
   -3.3795    1.2384    0.4469 N   0  0  0  0  0  0  0  0  0  0  0  0
   -6.6327   -2.6063    1.5328 H   0  0  0  0  0  0  0  0  0  0  0  0
   -6.9776   -3.8916   -0.5559 H   0  0  0  0  0  0  0  0  0  0  0  0
   -8.0209   -2.5672   -1.2159 H   0  0  0  0  0  0  0  0  0  0  0  0
   -8.5423   -3.4906    0.2447 H   0  0  0  0  0  0  0  0  0  0  0  0
   -4.9866   -2.2898   -0.2662 H   0  0  0  0  0  0  0  0  0  0  0  0
   -6.0110   -1.0537   -1.0774 H   0  0  0  0  0  0  0  0  0  0  0  0
   -6.3982    1.2737    0.4985 H   0  0  0  0  0  0  0  0  0  0  0  0
   -5.5612    1.1636    2.0980 H   0  0  0  0  0  0  0  0  0  0  0  0
   -6.9588   -0.7169    2.8104 H   0  0  0  0  0  0  0  0  0  0  0  0
   -7.9058    1.5512    3.1168 H   0  0  0  0  0  0  0  0  0  0  0  0
   -9.1940    0.3258    2.8181 H   0  0  0  0  0  0  0  0  0  0  0  0
   -8.7049    1.4520    1.4951 H   0  0  0  0  0  0  0  0  0  0  0  0
   -3.0093   -2.0898    0.8455 H   0  0  0  0  0  0  0  0  0  0  0  0
   -0.6458   -1.4511    0.6170 H   0  0  0  0  0  0  0  0  0  0  0  0
    1.0120    0.4452    0.8146 H   0  0  0  0  0  0  0  0  0  0  0  0
    1.9362    4.4436   -0.3056 H   0  0  0  0  0  0  0  0  0  0  0  0
    4.3170    5.0468   -0.2763 H   0  0  0  0  0  0  0  0  0  0  0  0
    6.0476    3.3231   -0.5367 H   0  0  0  0  0  0  0  0  0  0  0  0
    1.8868   -0.1166   -1.7145 H   0  0  0  0  0  0  0  0  0  0  0  0
    2.8318   -0.7020   -0.2878 H   0  0  0  0  0  0  0  0  0  0  0  0
    3.5974   -0.5365   -1.9161 H   0  0  0  0  0  0  0  0  0  0  0  0
    6.6505    1.6472   -2.6199 H   0  0  0  0  0  0  0  0  0  0  0  0
    8.4624   -0.0063   -2.8217 H   0  0  0  0  0  0  0  0  0  0  0  0
    6.8813   -2.1361    0.5800 H   0  0  0  0  0  0  0  0  0  0  0  0
    5.0936   -0.4862    0.7869 H   0  0  0  0  0  0  0  0  0  0  0  0
   -1.8462    2.6673    0.2410 H   0  0  0  0  0  0  0  0  0  0  0  0
  1  2  1  0
  1  3  1  0
  3  4  1  0
  4  5  1  0
  5  6  1  0
  6  7  1  0
  6  8  1  0
  4  9  1  0
  9 10  2  0
 10 11  1  0
 11 12  2  0
 12 13  1  0
 13 14  1  0
 14 15  2  0
 14 16  1  0
 16 17  2  0
 17 18  1  0
 18 19  2  0
 19 20  1  0
 20 21  2  0
 21 22  1  0
 20 23  1  0
 23 24  2  0
 24 25  1  0
 25 26  2  0
 26 27  1  0
 27 28  1  0
 28 29  1  0
 28 30  1  0
 28 31  1  0
 26 32  1  0
 32 33  2  0
 12 34  1  0
 34 35  2  0
  8  1  1  0
 35  9  1  0
 21 16  1  0
 33 23  1  0
  1 36  1  1
  2 37  1  0
  2 38  1  0
  2 39  1  0
  3 40  1  0
  3 41  1  0
  5 42  1  0
  5 43  1  0
  6 44  1  1
  7 45  1  0
  7 46  1  0
  7 47  1  0
 10 48  1  0
 11 49  1  0
 13 50  1  0
 17 51  1  0
 18 52  1  0
 19 53  1  0
 22 54  1  0
 22 55  1  0
 22 56  1  0
 24 57  1  0
 25 58  1  0
 32 59  1  0
 33 60  1  0
 34 61  1  0
M  END
$$$$
