
     RDKit          3D

 15 14  0  0  0  0  0  0  0  0999 V2000
    0.1273   -0.8221   -0.2536 C   0  0  1  0  0  0  0  0  0  0  0  0
   -0.5458   -1.7037    0.7059 N   0  0  0  0  0  0  0  0  0  0  0  0
   -0.7912    0.3194   -0.7369 C   0  0  0  0  0  0  0  0  0  0  0  0
   -1.2809    1.4553    0.5877 S   0  0  0  0  0  4  0  0  0  0  0  0
   -0.1179    2.4342    0.6783 O   0  0  0  0  0  0  0  0  0  0  0  0
    1.4200   -0.2980    0.3102 C   0  0  0  0  0  0  0  0  0  0  0  0
    2.4595    0.0341   -0.5530 O   0  0  0  0  0  0  0  0  0  0  0  0
    1.5559   -0.1179    1.5509 O   0  0  0  0  0  0  0  0  0  0  0  0
    0.3878   -1.4339   -1.1456 H   0  0  0  0  0  0  0  0  0  0  0  0
   -1.3875   -2.1201    0.2451 H   0  0  0  0  0  0  0  0  0  0  0  0
   -0.8826   -1.1516    1.5273 H   0  0  0  0  0  0  0  0  0  0  0  0
   -0.2795    0.8978   -1.5362 H   0  0  0  0  0  0  0  0  0  0  0  0
   -1.7116   -0.1160   -1.1808 H   0  0  0  0  0  0  0  0  0  0  0  0
   -2.2857    2.2174   -0.0023 H   0  0  0  0  0  0  0  0  0  0  0  0
    3.3321    0.4054   -0.1969 H   0  0  0  0  0  0  0  0  0  0  0  0
  1  2  1  0
  1  3  1  0
  3  4  1  0
  4  5  2  0
  1  6  1  0
  6  7  1  0
  6  8  2  0
  1  9  1  6
  2 10  1  0
  2 11  1  0
  3 12  1  0
  3 13  1  0
  4 14  1  0
  7 15  1  0
M  END
$$$$
