
     RDKit          3D

 34 34  0  0  0  0  0  0  0  0999 V2000
   -0.2769   -1.0639    3.1707 O   0  0  0  0  0  0  0  0  0  0  0  0
   -0.1376   -1.1819    1.7772 C   0  0  1  0  0  0  0  0  0  0  0  0
   -1.4711   -0.7703    1.1011 C   0  0  2  0  0  0  0  0  0  0  0  0
   -2.4113   -1.8094    1.2181 O   0  0  0  0  0  0  0  0  0  0  0  0
   -1.3160   -0.3285   -0.3888 C   0  0  1  0  0  0  0  0  0  0  0  0
   -1.2669    1.0858   -0.4721 O   0  0  0  0  0  0  0  0  0  0  0  0
   -2.8204    1.7103   -0.8116 P   0  0  0  0  0  5  0  0  0  0  0  0
   -2.8033    3.3846   -0.5720 O   0  0  0  0  0  0  0  0  0  0  0  0
   -3.9786    1.0141    0.2091 O   0  0  0  0  0  0  0  0  0  0  0  0
   -3.1776    1.4211   -2.2522 O   0  0  0  0  0  0  0  0  0  0  0  0
   -0.0215   -0.9011   -1.0045 C   0  0  1  0  0  0  0  0  0  0  0  0
    0.0665   -0.5526   -2.3635 O   0  0  0  0  0  0  0  0  0  0  0  0
    1.2478   -0.4138   -0.2547 C   0  0  1  0  0  0  0  0  0  0  0  0
    1.6258    0.8568   -0.7614 O   0  0  0  0  0  0  0  0  0  0  0  0
    3.2630    0.8523   -1.2505 P   0  0  0  0  0  5  0  0  0  0  0  0
    4.2679    0.4633    0.0565 O   0  0  0  0  0  0  0  0  0  0  0  0
    3.6696    2.3973   -1.8061 O   0  0  0  0  0  0  0  0  0  0  0  0
    3.4652   -0.1433   -2.3723 O   0  0  0  0  0  0  0  0  0  0  0  0
    1.0178   -0.2856    1.2804 C   0  0  2  0  0  0  0  0  0  0  0  0
    2.2052   -0.5587    1.9824 O   0  0  0  0  0  0  0  0  0  0  0  0
    0.3940   -1.6686    3.5830 H   0  0  0  0  0  0  0  0  0  0  0  0
    0.0937   -2.2415    1.5116 H   0  0  0  0  0  0  0  0  0  0  0  0
   -1.8783    0.0953    1.6694 H   0  0  0  0  0  0  0  0  0  0  0  0
   -2.0832   -2.5715    0.6725 H   0  0  0  0  0  0  0  0  0  0  0  0
   -2.1550   -0.7627   -0.9856 H   0  0  0  0  0  0  0  0  0  0  0  0
   -2.5450    3.4990    0.3772 H   0  0  0  0  0  0  0  0  0  0  0  0
   -4.8225    1.4846   -0.0082 H   0  0  0  0  0  0  0  0  0  0  0  0
   -0.0627   -2.0142   -0.9239 H   0  0  0  0  0  0  0  0  0  0  0  0
   -0.5938   -1.1127   -2.8497 H   0  0  0  0  0  0  0  0  0  0  0  0
    2.0092   -1.2113   -0.4308 H   0  0  0  0  0  0  0  0  0  0  0  0
    4.3464   -0.5239    0.0412 H   0  0  0  0  0  0  0  0  0  0  0  0
    2.9920    2.6028   -2.4988 H   0  0  0  0  0  0  0  0  0  0  0  0
    0.7362    0.7666    1.5108 H   0  0  0  0  0  0  0  0  0  0  0  0
    2.4210   -1.5184    1.8457 H   0  0  0  0  0  0  0  0  0  0  0  0
  1  2  1  0
  2  3  1  0
  3  4  1  0
  3  5  1  0
  5  6  1  0
  6  7  1  0
  7  8  1  0
  7  9  1  0
  7 10  2  0
  5 11  1  0
 11 12  1  0
 11 13  1  0
 13 14  1  0
 14 15  1  0
 15 16  1  0
 15 17  1  0
 15 18  2  0
 13 19  1  0
 19 20  1  0
 19  2  1  0
  1 21  1  0
  2 22  1  1
  3 23  1  1
  4 24  1  0
  5 25  1  6
  8 26  1  0
  9 27  1  0
 11 28  1  6
 12 29  1  0
 13 30  1  1
 16 31  1  0
 17 32  1  0
 19 33  1  6
 20 34  1  0
M  END
$$$$
