
     RDKit          3D

 27 27  0  0  0  0  0  0  0  0999 V2000
   -1.9424   -0.2916    0.5140 C   0  0  1  0  0  0  0  0  0  0  0  0
   -1.9138   -1.3623    1.4274 O   0  0  0  0  0  0  0  0  0  0  0  0
   -1.1436    0.9427    1.0505 C   0  0  2  0  0  0  0  0  0  0  0  0
   -1.9460    2.0987    1.0755 O   0  0  0  0  0  0  0  0  0  0  0  0
    0.1871    1.2190    0.3042 C   0  0  2  0  0  0  0  0  0  0  0  0
   -0.0436    1.9807   -0.8561 O   0  0  0  0  0  0  0  0  0  0  0  0
    0.8902   -0.1044   -0.0543 C   0  0  2  0  0  0  0  0  0  0  0  0
    2.1472    0.1735   -0.6490 O   0  0  0  0  0  0  0  0  0  0  0  0
    3.4117   -0.0970    0.4677 P   0  0  0  0  0  5  0  0  0  0  0  0
    3.1155    0.7341    1.9116 O   0  0  0  0  0  1  0  0  0  0  0  0
    4.8628    0.4575   -0.1996 O   0  0  0  0  0  1  0  0  0  0  0  0
    3.5322   -1.5769    0.7534 O   0  0  0  0  0  0  0  0  0  0  0  0
    0.0396   -0.9226   -1.0613 C   0  0  1  0  0  0  0  0  0  0  0  0
    0.4126   -2.2782   -1.0269 O   0  0  0  0  0  0  0  0  0  0  0  0
   -1.5062   -0.7613   -0.8948 C   0  0  2  0  0  0  0  0  0  0  0  0
   -1.9949    0.1578   -1.8406 O   0  0  0  0  0  0  0  0  0  0  0  0
   -3.0138   -0.0012    0.4358 H   0  0  0  0  0  0  0  0  0  0  0  0
   -0.9681   -1.5856    1.6158 H   0  0  0  0  0  0  0  0  0  0  0  0
   -0.8746    0.7322    2.1096 H   0  0  0  0  0  0  0  0  0  0  0  0
   -2.3049    2.2387    0.1606 H   0  0  0  0  0  0  0  0  0  0  0  0
    0.8399    1.8004    0.9966 H   0  0  0  0  0  0  0  0  0  0  0  0
    0.8175    2.4122   -1.0966 H   0  0  0  0  0  0  0  0  0  0  0  0
    0.9752   -0.7045    0.8821 H   0  0  0  0  0  0  0  0  0  0  0  0
    0.2990   -0.5588   -2.0809 H   0  0  0  0  0  0  0  0  0  0  0  0
    0.1384   -2.6455   -0.1475 H   0  0  0  0  0  0  0  0  0  0  0  0
   -1.9970   -1.7466   -1.0815 H   0  0  0  0  0  0  0  0  0  0  0  0
   -2.0201   -0.3112   -2.7157 H   0  0  0  0  0  0  0  0  0  0  0  0
  1  2  1  0
  1  3  1  0
  3  4  1  0
  3  5  1  0
  5  6  1  0
  5  7  1  0
  7  8  1  0
  8  9  1  0
  9 10  1  0
  9 11  1  0
  9 12  2  0
  7 13  1  0
 13 14  1  0
 13 15  1  0
 15 16  1  0
 15  1  1  0
  1 17  1  6
  2 18  1  0
  3 19  1  1
  4 20  1  0
  5 21  1  1
  6 22  1  0
  7 23  1  1
 13 24  1  6
 14 25  1  0
 15 26  1  6
 16 27  1  0
M  CHG  2  10  -1  11  -1
M  END
$$$$
