
     RDKit          3D

 42 43  0  0  0  0  0  0  0  0999 V2000
    4.4684    1.4239   -1.5957 C   0  0  0  0  0  0  0  0  0  0  0  0
    4.6340   -0.0636   -1.3041 C   0  0  0  0  0  0  0  0  0  0  0  0
    4.1353   -0.3938    0.0758 C   0  0  0  0  0  0  0  0  0  0  0  0
    4.9985   -0.3597    1.1935 C   0  0  0  0  0  0  0  0  0  0  0  0
    4.5080   -0.6360    2.4892 C   0  0  0  0  0  0  0  0  0  0  0  0
    3.1493   -0.9388    2.6885 C   0  0  0  0  0  0  0  0  0  0  0  0
    2.3184   -0.9533    1.5717 C   0  0  0  0  0  0  0  0  0  0  0  0
    2.7883   -0.6877    0.3126 C   0  0  0  0  0  0  0  0  0  0  0  0
    1.8122   -0.7513   -0.5608 O   0  0  0  0  0  0  0  0  0  0  0  0
    0.7078   -1.0557    0.0971 C   0  0  0  0  0  0  0  0  0  0  0  0
    0.9696   -1.1958    1.4592 C   0  0  0  0  0  0  0  0  0  0  0  0
   -0.6347   -1.2066   -0.5638 C   0  0  0  0  0  0  0  0  0  0  0  0
   -1.1688   -2.4831   -0.3132 O   0  0  0  0  0  0  0  0  0  0  0  0
   -1.6007   -0.0969   -0.1159 C   0  0  0  0  0  0  0  0  0  0  0  0
   -2.8872   -0.2425   -0.8182 N   0  0  0  0  0  0  0  0  0  0  0  0
   -4.0016    0.5768   -0.2777 C   0  0  0  0  0  0  0  0  0  0  0  0
   -3.6288    2.0747   -0.1956 C   0  0  0  0  0  0  0  0  0  0  0  0
   -4.4298    0.0614    1.1141 C   0  0  0  0  0  0  0  0  0  0  0  0
   -5.2076    0.4252   -1.2286 C   0  0  0  0  0  0  0  0  0  0  0  0
    4.8441    1.6469   -2.6164 H   0  0  0  0  0  0  0  0  0  0  0  0
    3.3963    1.7107   -1.5409 H   0  0  0  0  0  0  0  0  0  0  0  0
    5.0472    2.0267   -0.8635 H   0  0  0  0  0  0  0  0  0  0  0  0
    4.0730   -0.6519   -2.0624 H   0  0  0  0  0  0  0  0  0  0  0  0
    5.7072   -0.3383   -1.3975 H   0  0  0  0  0  0  0  0  0  0  0  0
    6.0462   -0.1183    1.0648 H   0  0  0  0  0  0  0  0  0  0  0  0
    5.1816   -0.6095    3.3358 H   0  0  0  0  0  0  0  0  0  0  0  0
    2.7633   -1.1477    3.6779 H   0  0  0  0  0  0  0  0  0  0  0  0
    0.2712   -1.4322    2.2513 H   0  0  0  0  0  0  0  0  0  0  0  0
   -0.4847   -1.1119   -1.6612 H   0  0  0  0  0  0  0  0  0  0  0  0
   -1.3823   -2.5398    0.6550 H   0  0  0  0  0  0  0  0  0  0  0  0
   -1.7324   -0.1661    0.9826 H   0  0  0  0  0  0  0  0  0  0  0  0
   -1.1443    0.8898   -0.3550 H   0  0  0  0  0  0  0  0  0  0  0  0
   -2.7252    0.0212   -1.8198 H   0  0  0  0  0  0  0  0  0  0  0  0
   -3.2492    2.4342   -1.1759 H   0  0  0  0  0  0  0  0  0  0  0  0
   -2.8493    2.2538    0.5747 H   0  0  0  0  0  0  0  0  0  0  0  0
   -4.5164    2.6833    0.0826 H   0  0  0  0  0  0  0  0  0  0  0  0
   -5.3896    0.5266    1.4273 H   0  0  0  0  0  0  0  0  0  0  0  0
   -4.5648   -1.0414    1.0918 H   0  0  0  0  0  0  0  0  0  0  0  0
   -3.6836    0.3122    1.8953 H   0  0  0  0  0  0  0  0  0  0  0  0
   -4.9583    0.8073   -2.2421 H   0  0  0  0  0  0  0  0  0  0  0  0
   -5.4932   -0.6450   -1.3222 H   0  0  0  0  0  0  0  0  0  0  0  0
   -6.0874    0.9923   -0.8541 H   0  0  0  0  0  0  0  0  0  0  0  0
  1  2  1  0
  2  3  1  0
  3  4  2  0
  4  5  1  0
  5  6  2  0
  6  7  1  0
  7  8  2  0
  8  9  1  0
  9 10  1  0
 10 11  2  0
 10 12  1  0
 12 13  1  0
 12 14  1  0
 14 15  1  0
 15 16  1  0
 16 17  1  0
 16 18  1  0
 16 19  1  0
  8  3  1  0
 11  7  1  0
  1 20  1  0
  1 21  1  0
  1 22  1  0
  2 23  1  0
  2 24  1  0
  4 25  1  0
  5 26  1  0
  6 27  1  0
 11 28  1  0
 12 29  1  0
 13 30  1  0
 14 31  1  0
 14 32  1  0
 15 33  1  0
 17 34  1  0
 17 35  1  0
 17 36  1  0
 18 37  1  0
 18 38  1  0
 18 39  1  0
 19 40  1  0
 19 41  1  0
 19 42  1  0
M  END
$$$$
