
     RDKit          3D

 24 25  0  0  0  0  0  0  0  0999 V2000
    0.4051    3.8537    0.5901 N   0  0  0  0  0  0  0  0  0  0  0  0
    0.8534    2.5281    0.7183 N   0  0  0  0  0  0  0  0  0  0  0  0
    0.2192    1.4609    0.3080 C   0  0  0  0  0  0  0  0  0  0  0  0
   -1.0373    1.5323   -0.2266 N   0  0  0  0  0  0  0  0  0  0  0  0
   -1.6870    0.4476   -0.6550 N   0  0  0  0  0  0  0  0  0  0  0  0
   -1.1362   -0.8019   -0.5857 C   0  0  0  0  0  0  0  0  0  0  0  0
   -1.7746   -1.8593   -1.0145 N   0  0  0  0  0  0  0  0  0  0  0  0
   -3.0188   -1.8626   -1.6674 N   0  0  0  0  0  0  0  0  0  0  0  0
    0.1419   -0.9509   -0.0118 C   0  0  0  0  0  0  0  0  0  0  0  0
    0.7542   -2.2172    0.1140 C   0  0  0  0  0  0  0  0  0  0  0  0
    2.0235   -2.3383    0.6811 C   0  0  0  0  0  0  0  0  0  0  0  0
    2.7015   -1.2064    1.1281 C   0  0  0  0  0  0  0  0  0  0  0  0
    2.1148    0.0543    1.0111 C   0  0  0  0  0  0  0  0  0  0  0  0
    0.8304    0.1986    0.4422 C   0  0  0  0  0  0  0  0  0  0  0  0
   -0.3182    4.1423   -0.1026 H   0  0  0  0  0  0  0  0  0  0  0  0
    0.9341    4.6120    1.0735 H   0  0  0  0  0  0  0  0  0  0  0  0
   -1.5458    2.4397   -0.2846 H   0  0  0  0  0  0  0  0  0  0  0  0
   -2.6542    0.5894   -1.0154 H   0  0  0  0  0  0  0  0  0  0  0  0
   -3.4114   -1.0218   -2.1421 H   0  0  0  0  0  0  0  0  0  0  0  0
   -3.4912   -2.7759   -1.8443 H   0  0  0  0  0  0  0  0  0  0  0  0
    0.2565   -3.1177   -0.2240 H   0  0  0  0  0  0  0  0  0  0  0  0
    2.4832   -3.3139    0.7733 H   0  0  0  0  0  0  0  0  0  0  0  0
    3.6862   -1.3055    1.5665 H   0  0  0  0  0  0  0  0  0  0  0  0
    2.6706    0.9127    1.3677 H   0  0  0  0  0  0  0  0  0  0  0  0
  1  2  1  0
  2  3  2  3
  3  4  1  0
  4  5  1  0
  5  6  1  0
  6  7  2  3
  7  8  1  0
  6  9  1  0
  9 10  2  0
 10 11  1  0
 11 12  2  0
 12 13  1  0
 13 14  2  0
 14  3  1  0
 14  9  1  0
  1 15  1  0
  1 16  1  0
  4 17  1  0
  5 18  1  0
  8 19  1  0
  8 20  1  0
 10 21  1  0
 11 22  1  0
 12 23  1  0
 13 24  1  0
M  END
$$$$
