
     RDKit          3D

 42 44  0  0  0  0  0  0  0  0999 V2000
   -1.3827   -0.6169    2.9700 C   0  0  0  0  0  0  0  0  0  0  0  0
   -1.2378    0.5724    2.1264 N   0  0  0  0  0  0  0  0  0  0  0  0
   -0.7199    0.2447    0.7825 C   0  0  2  0  0  0  0  0  0  0  0  0
    0.3074    1.3291    0.3919 C   0  0  0  0  0  0  0  0  0  0  0  0
    0.9678    0.9989   -0.8772 N   0  0  0  0  0  0  0  0  0  0  0  0
    2.3749    0.7056   -0.9564 C   0  0  0  0  0  0  0  0  0  0  0  0
    3.0000   -0.0794    0.0292 C   0  0  0  0  0  0  0  0  0  0  0  0
    4.3757   -0.3712   -0.0538 C   0  0  0  0  0  0  0  0  0  0  0  0
    5.0388   -1.1497    0.9067 O   0  0  0  0  0  0  0  0  0  0  0  0
    4.4133   -1.7185    2.0525 C   0  0  0  0  0  0  0  0  0  0  0  0
    5.1164    0.1269   -1.1313 C   0  0  0  0  0  0  0  0  0  0  0  0
    4.5005    0.9019   -2.1161 C   0  0  0  0  0  0  0  0  0  0  0  0
    3.1367    1.1891   -2.0317 C   0  0  0  0  0  0  0  0  0  0  0  0
   -0.0508    0.8135   -2.2665 S   0  0  0  0  0  6  0  0  0  0  0  0
    0.4846   -0.2616   -3.1699 O   0  0  0  0  0  0  0  0  0  0  0  0
   -0.1664    2.1176   -3.0033 O   0  0  0  0  0  0  0  0  0  0  0  0
   -1.5947    0.3274   -1.6217 C   0  0  0  0  0  0  0  0  0  0  0  0
   -1.8288    0.1301   -0.2642 C   0  0  0  0  0  0  0  0  0  0  0  0
   -3.1444   -0.3035   -0.0186 C   0  0  0  0  0  0  0  0  0  0  0  0
   -3.9107   -0.4000   -1.1735 C   0  0  0  0  0  0  0  0  0  0  0  0
   -2.9827    0.0169   -2.5133 S   0  0  0  0  0  0  0  0  0  0  0  0
   -5.5928   -0.8919   -1.2296 S   0  0  0  0  0  6  0  0  0  0  0  0
   -6.5722    0.2867   -0.4298 N   0  0  0  0  0  0  0  0  0  0  0  0
   -6.0351   -1.0142   -2.6606 O   0  0  0  0  0  0  0  0  0  0  0  0
   -5.7473   -2.2246   -0.5532 O   0  0  0  0  0  0  0  0  0  0  0  0
   -1.9942   -1.3967    2.4690 H   0  0  0  0  0  0  0  0  0  0  0  0
   -1.8750   -0.3368    3.9251 H   0  0  0  0  0  0  0  0  0  0  0  0
   -0.3810   -1.0338    3.2083 H   0  0  0  0  0  0  0  0  0  0  0  0
   -2.1498    1.0833    2.0739 H   0  0  0  0  0  0  0  0  0  0  0  0
   -0.1731   -0.7265    0.7967 H   0  0  0  0  0  0  0  0  0  0  0  0
    1.0565    1.4500    1.2045 H   0  0  0  0  0  0  0  0  0  0  0  0
   -0.2100    2.3077    0.2856 H   0  0  0  0  0  0  0  0  0  0  0  0
    2.4091   -0.4744    0.8435 H   0  0  0  0  0  0  0  0  0  0  0  0
    3.6140   -2.4237    1.7407 H   0  0  0  0  0  0  0  0  0  0  0  0
    3.9878   -0.9171    2.6928 H   0  0  0  0  0  0  0  0  0  0  0  0
    5.1708   -2.2774    2.6391 H   0  0  0  0  0  0  0  0  0  0  0  0
    6.1745   -0.0900   -1.2061 H   0  0  0  0  0  0  0  0  0  0  0  0
    5.0821    1.2824   -2.9458 H   0  0  0  0  0  0  0  0  0  0  0  0
    2.6773    1.7993   -2.7985 H   0  0  0  0  0  0  0  0  0  0  0  0
   -3.5381   -0.5406    0.9592 H   0  0  0  0  0  0  0  0  0  0  0  0
   -6.3778    1.2057   -0.8868 H   0  0  0  0  0  0  0  0  0  0  0  0
   -6.2230    0.3589    0.5521 H   0  0  0  0  0  0  0  0  0  0  0  0
  1  2  1  0
  2  3  1  0
  3  4  1  0
  4  5  1  0
  5  6  1  0
  6  7  2  0
  7  8  1  0
  8  9  1  0
  9 10  1  0
  8 11  2  0
 11 12  1  0
 12 13  2  0
  5 14  1  0
 14 15  2  0
 14 16  2  0
 14 17  1  0
 17 18  2  0
 18 19  1  0
 19 20  2  0
 20 21  1  0
 20 22  1  0
 22 23  1  0
 22 24  2  0
 22 25  2  0
 18  3  1  0
 13  6  1  0
 21 17  1  0
  1 26  1  0
  1 27  1  0
  1 28  1  0
  2 29  1  0
  3 30  1  1
  4 31  1  0
  4 32  1  0
  7 33  1  0
 10 34  1  0
 10 35  1  0
 10 36  1  0
 11 37  1  0
 12 38  1  0
 13 39  1  0
 19 40  1  0
 23 41  1  0
 23 42  1  0
M  END
$$$$
