
     RDKit          3D

142145  0  0  0  0  0  0  0  0999 V2000
    9.1924    0.0552    0.6960 C   0  0  0  0  0  0  0  0  0  0  0  0
    7.9339    0.4921    0.5278 C   0  0  0  0  0  0  0  0  0  0  0  0
    7.5247    1.4385   -0.5830 C   0  0  1  0  0  0  0  0  0  0  0  0
    8.3371    2.7411   -0.5125 C   0  0  0  0  0  0  0  0  0  0  0  0
    7.5705    0.8077   -2.0095 C   0  0  1  0  0  0  0  0  0  0  0  0
    8.8132    0.1527   -2.2318 O   0  0  0  0  0  0  0  0  0  0  0  0
    9.5394    0.7666   -3.2742 C   0  0  0  0  0  0  0  0  0  0  0  0
    6.3894   -0.1751   -2.2771 C   0  0  1  0  0  0  0  0  0  0  0  0
    6.3312   -0.5676   -3.7593 C   0  0  0  0  0  0  0  0  0  0  0  0
    6.4070   -1.4359   -1.4331 C   0  0  0  0  0  0  0  0  0  0  0  0
    7.4683   -1.9547   -1.1184 O   0  0  0  0  0  0  0  0  0  0  0  0
    5.1211   -2.1507   -1.0978 C   0  0  0  0  0  0  0  0  0  0  0  0
    4.7916   -2.0823    0.4021 C   0  0  0  0  0  0  0  0  0  0  0  0
    4.2256   -0.7154    0.8783 C   0  0  2  0  0  0  0  0  0  0  0  0
    4.2005   -0.6825    2.4159 C   0  0  0  0  0  0  0  0  0  0  0  0
    2.8289   -0.3140    0.2943 C   0  0  2  0  0  0  0  0  0  0  0  0
    1.8154   -1.4813    0.2725 C   0  0  0  0  0  0  0  0  0  0  0  0
    0.3748   -1.0283   -0.1125 C   0  0  2  0  0  0  0  0  0  0  0  0
   -0.5130   -1.2221    0.9938 O   0  0  0  0  0  0  0  0  0  0  0  0
   -0.5729   -0.3819    2.1120 C   0  0  0  0  0  0  0  0  0  0  0  0
    0.2077    0.6009    2.2278 O   0  0  0  0  0  0  0  0  0  0  0  0
   -1.6197   -0.6216    3.1538 C   0  0  0  0  0  0  0  0  0  0  0  0
   -2.8034    0.3523    2.9992 C   0  0  2  0  0  0  0  0  0  0  0  0
   -3.8192    0.0988    4.1387 C   0  0  0  0  0  0  0  0  0  0  0  0
   -5.0260    1.0759    4.1293 C   0  0  2  0  0  0  0  0  0  0  0  0
   -4.6215    2.4274    4.7426 C   0  0  0  0  0  0  0  0  0  0  0  0
   -6.2499    0.4939    4.8962 C   0  0  0  0  0  0  0  0  0  0  0  0
   -7.2163   -0.3955    4.0630 C   0  0  2  0  0  0  0  0  0  0  0  0
   -6.5850   -1.6050    3.7197 O   0  0  0  0  0  0  0  0  0  0  0  0
   -7.8588    0.2927    2.8129 C   0  0  2  0  0  0  0  0  0  0  0  0
   -8.5027    1.6488    3.1630 C   0  0  0  0  0  0  0  0  0  0  0  0
   -8.8806   -0.6515    2.1159 C   0  0  1  0  0  0  0  0  0  0  0  0
  -10.0967   -0.6741    2.8495 O   0  0  0  0  0  0  0  0  0  0  0  0
  -10.6994   -1.9479    2.7764 C   0  0  0  0  0  0  0  0  0  0  0  0
   -9.1142   -0.1993    0.6952 C   0  0  0  0  0  0  0  0  0  0  0  0
  -10.2824    0.2840    0.1404 C   0  0  0  0  0  0  0  0  0  0  0  0
  -10.0261    0.5935   -1.1084 O   0  0  0  0  0  0  0  0  0  0  0  0
   -8.7565    0.3239   -1.3194 C   0  0  0  0  0  0  0  0  0  0  0  0
   -8.1394   -0.1750   -0.2314 N   0  0  0  0  0  0  0  0  0  0  0  0
   -8.0587    0.5484   -2.5867 C   0  0  0  0  0  0  0  0  0  0  0  0
   -8.6180    0.9342   -3.7844 C   0  0  0  0  0  0  0  0  0  0  0  0
   -7.6450    1.0137   -4.6606 O   0  0  0  0  0  0  0  0  0  0  0  0
   -6.5327    0.6976   -4.0329 C   0  0  0  0  0  0  0  0  0  0  0  0
   -6.7309    0.3968   -2.7342 N   0  0  0  0  0  0  0  0  0  0  0  0
   -5.2091    0.6663   -4.6591 C   0  0  0  0  0  0  0  0  0  0  0  0
   -4.9278    0.8054   -5.9993 C   0  0  0  0  0  0  0  0  0  0  0  0
   -3.6298    0.6835   -6.1394 O   0  0  0  0  0  0  0  0  0  0  0  0
   -3.1258    0.4846   -4.9408 C   0  0  0  0  0  0  0  0  0  0  0  0
   -4.0690    0.4624   -3.9752 N   0  0  0  0  0  0  0  0  0  0  0  0
   -1.6907    0.2895   -4.6865 C   0  0  0  0  0  0  0  0  0  0  0  0
   -1.1937    0.2930   -3.4453 C   0  0  0  0  0  0  0  0  0  0  0  0
    0.2566    0.0090   -3.1656 C   0  0  0  0  0  0  0  0  0  0  0  0
    0.4921   -1.4478   -2.6967 C   0  0  2  0  0  0  0  0  0  0  0  0
    0.0097   -2.3263   -3.7055 O   0  0  0  0  0  0  0  0  0  0  0  0
    1.0649   -2.7916   -4.5186 C   0  0  0  0  0  0  0  0  0  0  0  0
   -0.2155   -1.7852   -1.3432 C   0  0  1  0  0  0  0  0  0  0  0  0
   -0.2628   -3.3096   -1.1010 C   0  0  0  0  0  0  0  0  0  0  0  0
   -3.4318    0.1180    1.7439 O   0  0  0  0  0  0  0  0  0  0  0  0
   -3.5045    1.2984    0.9558 C   0  0  2  0  0  0  0  0  0  0  0  0
   -4.4667    1.1054   -0.1280 N   0  0  0  0  0  0  0  0  0  0  0  0
   -2.2467    1.6134    0.4183 O   0  0  0  0  0  0  0  0  0  0  0  0
    2.9814    0.1815   -1.0270 O   0  0  0  0  0  0  0  0  0  0  0  0
    3.0516    1.5918   -1.0360 C   0  0  0  0  0  0  0  0  0  0  0  0
    9.5776   -0.8491    1.7535 N   0  0  0  0  0  0  0  0  0  0  0  0
    8.6164   -1.3288    2.7543 C   0  0  0  0  0  0  0  0  0  0  0  0
   10.9773   -1.2856    1.8131 C   0  0  0  0  0  0  0  0  0  0  0  0
   11.2339   -2.2127    0.7938 O   0  0  0  0  0  0  0  0  0  0  0  0
    9.9586    0.3923    0.0097 H   0  0  0  0  0  0  0  0  0  0  0  0
    7.1639    0.1913    1.2217 H   0  0  0  0  0  0  0  0  0  0  0  0
    6.4711    1.7343   -0.3851 H   0  0  0  0  0  0  0  0  0  0  0  0
    9.4082    2.5627   -0.7400 H   0  0  0  0  0  0  0  0  0  0  0  0
    8.2586    3.1851    0.5032 H   0  0  0  0  0  0  0  0  0  0  0  0
    7.9400    3.4806   -1.2401 H   0  0  0  0  0  0  0  0  0  0  0  0
    7.3974    1.6587   -2.7164 H   0  0  0  0  0  0  0  0  0  0  0  0
   10.5026    0.2309   -3.3978 H   0  0  0  0  0  0  0  0  0  0  0  0
    9.7696    1.8271   -3.0334 H   0  0  0  0  0  0  0  0  0  0  0  0
    8.9878    0.7009   -4.2373 H   0  0  0  0  0  0  0  0  0  0  0  0
    5.4489    0.3722   -2.0582 H   0  0  0  0  0  0  0  0  0  0  0  0
    7.2274   -1.1587   -4.0453 H   0  0  0  0  0  0  0  0  0  0  0  0
    5.4253   -1.1791   -3.9598 H   0  0  0  0  0  0  0  0  0  0  0  0
    6.2771    0.3391   -4.3988 H   0  0  0  0  0  0  0  0  0  0  0  0
    4.2822   -1.7664   -1.7096 H   0  0  0  0  0  0  0  0  0  0  0  0
    5.2398   -3.2183   -1.3836 H   0  0  0  0  0  0  0  0  0  0  0  0
    4.0835   -2.8980    0.6583 H   0  0  0  0  0  0  0  0  0  0  0  0
    5.7198   -2.3140    0.9689 H   0  0  0  0  0  0  0  0  0  0  0  0
    4.9466    0.0675    0.5711 H   0  0  0  0  0  0  0  0  0  0  0  0
    5.2186   -0.8644    2.8221 H   0  0  0  0  0  0  0  0  0  0  0  0
    3.8704    0.3142    2.7787 H   0  0  0  0  0  0  0  0  0  0  0  0
    3.5155   -1.4578    2.8183 H   0  0  0  0  0  0  0  0  0  0  0  0
    2.3910    0.4581    0.9708 H   0  0  0  0  0  0  0  0  0  0  0  0
    2.1844   -2.2474   -0.4348 H   0  0  0  0  0  0  0  0  0  0  0  0
    1.7893   -1.9663    1.2716 H   0  0  0  0  0  0  0  0  0  0  0  0
    0.3683    0.0547   -0.3495 H   0  0  0  0  0  0  0  0  0  0  0  0
   -1.9795   -1.6707    3.0725 H   0  0  0  0  0  0  0  0  0  0  0  0
   -1.1553   -0.4978    4.1566 H   0  0  0  0  0  0  0  0  0  0  0  0
   -2.3912    1.3832    3.1126 H   0  0  0  0  0  0  0  0  0  0  0  0
   -4.1687   -0.9495    4.0582 H   0  0  0  0  0  0  0  0  0  0  0  0
   -3.3015    0.1707    5.1213 H   0  0  0  0  0  0  0  0  0  0  0  0
   -5.3218    1.2848    3.0885 H   0  0  0  0  0  0  0  0  0  0  0  0
   -4.3313    2.3030    5.8080 H   0  0  0  0  0  0  0  0  0  0  0  0
   -5.4690    3.1434    4.6855 H   0  0  0  0  0  0  0  0  0  0  0  0
   -3.7722    2.8768    4.1886 H   0  0  0  0  0  0  0  0  0  0  0  0
   -5.8894   -0.0941    5.7691 H   0  0  0  0  0  0  0  0  0  0  0  0
   -6.8519    1.3172    5.3383 H   0  0  0  0  0  0  0  0  0  0  0  0
   -8.0524   -0.6596    4.7476 H   0  0  0  0  0  0  0  0  0  0  0  0
   -6.0465   -1.4474    2.9010 H   0  0  0  0  0  0  0  0  0  0  0  0
   -7.0511    0.4941    2.0804 H   0  0  0  0  0  0  0  0  0  0  0  0
   -9.2108    1.5416    4.0120 H   0  0  0  0  0  0  0  0  0  0  0  0
   -7.7233    2.3906    3.4339 H   0  0  0  0  0  0  0  0  0  0  0  0
   -9.0516    2.0598    2.2898 H   0  0  0  0  0  0  0  0  0  0  0  0
   -8.4120   -1.6620    2.0416 H   0  0  0  0  0  0  0  0  0  0  0  0
  -10.0887   -2.7023    3.3196 H   0  0  0  0  0  0  0  0  0  0  0  0
  -11.6925   -1.8988    3.2680 H   0  0  0  0  0  0  0  0  0  0  0  0
  -10.8586   -2.2636    1.7212 H   0  0  0  0  0  0  0  0  0  0  0  0
  -11.2426    0.3995    0.6254 H   0  0  0  0  0  0  0  0  0  0  0  0
   -9.6612    1.1362   -3.9885 H   0  0  0  0  0  0  0  0  0  0  0  0
   -5.6300    0.9766   -6.8045 H   0  0  0  0  0  0  0  0  0  0  0  0
   -1.0340    0.1371   -5.5343 H   0  0  0  0  0  0  0  0  0  0  0  0
   -1.8503    0.4632   -2.6014 H   0  0  0  0  0  0  0  0  0  0  0  0
    0.8647    0.1969   -4.0773 H   0  0  0  0  0  0  0  0  0  0  0  0
    0.6208    0.7350   -2.4151 H   0  0  0  0  0  0  0  0  0  0  0  0
    1.5893   -1.5605   -2.5295 H   0  0  0  0  0  0  0  0  0  0  0  0
    0.6375   -3.4087   -5.3350 H   0  0  0  0  0  0  0  0  0  0  0  0
    1.6197   -1.9482   -4.9857 H   0  0  0  0  0  0  0  0  0  0  0  0
    1.7576   -3.4355   -3.9330 H   0  0  0  0  0  0  0  0  0  0  0  0
   -1.2785   -1.4719   -1.4271 H   0  0  0  0  0  0  0  0  0  0  0  0
   -0.9536   -3.7889   -1.8269 H   0  0  0  0  0  0  0  0  0  0  0  0
    0.7371   -3.7742   -1.2249 H   0  0  0  0  0  0  0  0  0  0  0  0
   -0.6431   -3.5402   -0.0837 H   0  0  0  0  0  0  0  0  0  0  0  0
   -3.8499    2.1699    1.5569 H   0  0  0  0  0  0  0  0  0  0  0  0
   -4.2220    0.2280   -0.6427 H   0  0  0  0  0  0  0  0  0  0  0  0
   -5.4087    0.9518    0.2982 H   0  0  0  0  0  0  0  0  0  0  0  0
   -1.9737    0.8442   -0.1446 H   0  0  0  0  0  0  0  0  0  0  0  0
    3.8718    1.9651   -0.3847 H   0  0  0  0  0  0  0  0  0  0  0  0
    2.0807    2.0365   -0.7259 H   0  0  0  0  0  0  0  0  0  0  0  0
    3.2618    1.9286   -2.0717 H   0  0  0  0  0  0  0  0  0  0  0  0
    9.0926   -2.0160    3.4845 H   0  0  0  0  0  0  0  0  0  0  0  0
    8.1946   -0.4681    3.3149 H   0  0  0  0  0  0  0  0  0  0  0  0
    7.7986   -1.8858    2.2521 H   0  0  0  0  0  0  0  0  0  0  0  0
   11.6561   -0.4061    1.7275 H   0  0  0  0  0  0  0  0  0  0  0  0
   11.2044   -1.7663    2.7878 H   0  0  0  0  0  0  0  0  0  0  0  0
   11.3425   -1.6927   -0.0445 H   0  0  0  0  0  0  0  0  0  0  0  0
  1  2  2  0
  2  3  1  0
  3  4  1  0
  3  5  1  0
  5  6  1  0
  6  7  1  0
  5  8  1  0
  8  9  1  0
  8 10  1  0
 10 11  2  0
 10 12  1  0
 12 13  1  0
 13 14  1  0
 14 15  1  0
 14 16  1  0
 16 17  1  0
 17 18  1  0
 18 19  1  0
 19 20  1  0
 20 21  2  0
 20 22  1  0
 22 23  1  0
 23 24  1  0
 24 25  1  0
 25 26  1  0
 25 27  1  0
 27 28  1  0
 28 29  1  0
 28 30  1  0
 30 31  1  0
 30 32  1  0
 32 33  1  0
 33 34  1  0
 32 35  1  0
 35 36  2  0
 36 37  1  0
 37 38  1  0
 38 39  2  0
 38 40  1  0
 40 41  2  0
 41 42  1  0
 42 43  1  0
 43 44  2  0
 43 45  1  0
 45 46  2  0
 46 47  1  0
 47 48  1  0
 48 49  2  0
 48 50  1  0
 50 51  2  0
 51 52  1  0
 52 53  1  0
 53 54  1  0
 54 55  1  0
 53 56  1  0
 56 57  1  0
 23 58  1  0
 58 59  1  0
 59 60  1  0
 59 61  1  0
 16 62  1  0
 62 63  1  0
  1 64  1  0
 64 65  1  0
 64 66  1  0
 66 67  1  0
 56 18  1  0
 39 35  1  0
 44 40  1  0
 49 45  1  0
  1 68  1  0
  2 69  1  0
  3 70  1  1
  4 71  1  0
  4 72  1  0
  4 73  1  0
  5 74  1  6
  7 75  1  0
  7 76  1  0
  7 77  1  0
  8 78  1  1
  9 79  1  0
  9 80  1  0
  9 81  1  0
 12 82  1  0
 12 83  1  0
 13 84  1  0
 13 85  1  0
 14 86  1  6
 15 87  1  0
 15 88  1  0
 15 89  1  0
 16 90  1  1
 17 91  1  0
 17 92  1  0
 18 93  1  6
 22 94  1  0
 22 95  1  0
 23 96  1  6
 24 97  1  0
 24 98  1  0
 25 99  1  6
 26100  1  0
 26101  1  0
 26102  1  0
 27103  1  0
 27104  1  0
 28105  1  1
 29106  1  0
 30107  1  6
 31108  1  0
 31109  1  0
 31110  1  0
 32111  1  6
 34112  1  0
 34113  1  0
 34114  1  0
 36115  1  0
 41116  1  0
 46117  1  0
 50118  1  0
 51119  1  0
 52120  1  0
 52121  1  0
 53122  1  1
 55123  1  0
 55124  1  0
 55125  1  0
 56126  1  6
 57127  1  0
 57128  1  0
 57129  1  0
 59130  1  1
 60131  1  0
 60132  1  0
 61133  1  0
 63134  1  0
 63135  1  0
 63136  1  0
 65137  1  0
 65138  1  0
 65139  1  0
 66140  1  0
 66141  1  0
 67142  1  0
M  END
$$$$
