
     RDKit          3D

 42 44  0  0  0  0  0  0  0  0999 V2000
   -0.5452   -1.4563    1.4400 C   0  0  1  0  0  0  0  0  0  0  0  0
   -1.5435   -2.4922    1.1748 N   0  0  0  0  0  0  0  0  0  0  0  0
   -1.8121   -2.9325   -0.1552 C   0  0  0  0  0  0  0  0  0  0  0  0
   -3.0186   -4.0160   -0.4172 S   0  0  0  0  0  0  0  0  0  0  0  0
   -0.9776   -2.4543   -1.2244 N   0  0  0  0  0  0  0  0  0  0  0  0
   -1.4073   -2.5781   -2.6232 C   0  0  0  0  0  0  0  0  0  0  0  0
    0.3077   -1.8808   -0.8865 C   0  0  0  0  0  0  0  0  0  0  0  0
    1.3995   -1.8396   -1.9349 C   0  0  0  0  0  0  0  0  0  0  0  0
    0.5226   -1.3894    0.3623 C   0  0  0  0  0  0  0  0  0  0  0  0
    1.7879   -0.7093    0.7278 C   0  0  0  0  0  0  0  0  0  0  0  0
    2.5181   -1.2418    1.6070 O   0  0  0  0  0  0  0  0  0  0  0  0
    2.1904    0.5885    0.1238 C   0  0  0  0  0  0  0  0  0  0  0  0
    3.4948    1.0818    0.3171 C   0  0  0  0  0  0  0  0  0  0  0  0
    3.8789    2.3083   -0.2334 C   0  0  0  0  0  0  0  0  0  0  0  0
    2.9671    3.0589   -0.9780 C   0  0  0  0  0  0  0  0  0  0  0  0
    1.6688    2.5847   -1.1735 C   0  0  0  0  0  0  0  0  0  0  0  0
    1.2794    1.3587   -0.6267 C   0  0  0  0  0  0  0  0  0  0  0  0
   -1.2074   -0.1041    1.6021 C   0  0  0  0  0  0  0  0  0  0  0  0
   -2.1345    0.3706    0.6542 C   0  0  0  0  0  0  0  0  0  0  0  0
   -2.6912    1.6476    0.7823 C   0  0  0  0  0  0  0  0  0  0  0  0
   -3.6068    2.0961   -0.1670 O   0  0  0  0  0  0  0  0  0  0  0  0
   -2.3209    2.4646    1.8578 C   0  0  0  0  0  0  0  0  0  0  0  0
   -1.3934    2.0078    2.7964 C   0  0  0  0  0  0  0  0  0  0  0  0
   -0.8349    0.7334    2.6685 C   0  0  0  0  0  0  0  0  0  0  0  0
   -0.0436   -1.7344    2.3937 H   0  0  0  0  0  0  0  0  0  0  0  0
   -2.1477   -2.8217    1.9616 H   0  0  0  0  0  0  0  0  0  0  0  0
   -2.5089   -2.4650   -2.7059 H   0  0  0  0  0  0  0  0  0  0  0  0
   -0.9597   -1.7756   -3.2463 H   0  0  0  0  0  0  0  0  0  0  0  0
   -1.1071   -3.5699   -3.0213 H   0  0  0  0  0  0  0  0  0  0  0  0
    1.2839   -2.6794   -2.6504 H   0  0  0  0  0  0  0  0  0  0  0  0
    1.3501   -0.8812   -2.4919 H   0  0  0  0  0  0  0  0  0  0  0  0
    2.4074   -1.9524   -1.4833 H   0  0  0  0  0  0  0  0  0  0  0  0
    4.2205    0.5178    0.8897 H   0  0  0  0  0  0  0  0  0  0  0  0
    4.8850    2.6774   -0.0814 H   0  0  0  0  0  0  0  0  0  0  0  0
    3.2663    4.0085   -1.4024 H   0  0  0  0  0  0  0  0  0  0  0  0
    0.9615    3.1684   -1.7486 H   0  0  0  0  0  0  0  0  0  0  0  0
    0.2660    1.0204   -0.7917 H   0  0  0  0  0  0  0  0  0  0  0  0
   -2.4165   -0.2393   -0.1932 H   0  0  0  0  0  0  0  0  0  0  0  0
   -4.0263    3.0164   -0.1046 H   0  0  0  0  0  0  0  0  0  0  0  0
   -2.7461    3.4545    1.9632 H   0  0  0  0  0  0  0  0  0  0  0  0
   -1.1019    2.6448    3.6214 H   0  0  0  0  0  0  0  0  0  0  0  0
   -0.1049    0.4041    3.3974 H   0  0  0  0  0  0  0  0  0  0  0  0
  1  2  1  0
  2  3  1  0
  3  4  2  0
  3  5  1  0
  5  6  1  0
  5  7  1  0
  7  8  1  0
  7  9  2  0
  9 10  1  0
 10 11  2  0
 10 12  1  0
 12 13  2  0
 13 14  1  0
 14 15  2  0
 15 16  1  0
 16 17  2  0
  1 18  1  0
 18 19  2  0
 19 20  1  0
 20 21  1  0
 20 22  2  0
 22 23  1  0
 23 24  2  0
  9  1  1  0
 17 12  1  0
 24 18  1  0
  1 25  1  1
  2 26  1  0
  6 27  1  0
  6 28  1  0
  6 29  1  0
  8 30  1  0
  8 31  1  0
  8 32  1  0
 13 33  1  0
 14 34  1  0
 15 35  1  0
 16 36  1  0
 17 37  1  0
 19 38  1  0
 21 39  1  0
 22 40  1  0
 23 41  1  0
 24 42  1  0
M  END
$$$$
