
     RDKit          3D

 39 41  0  0  0  0  0  0  0  0999 V2000
    5.7250    1.4361    0.0322 C   0  0  0  0  0  0  0  0  0  0  0  0
    4.6705    1.0136   -1.3932 S   0  0  0  0  0  0  0  0  0  0  0  0
    3.0727    1.2020   -0.5169 C   0  0  0  0  0  0  0  0  0  0  0  0
    2.6511   -0.1010    0.1829 C   0  0  1  0  0  0  0  0  0  0  0  0
    1.4795    0.1757    1.0278 N   0  0  0  0  0  0  0  0  0  0  0  0
    0.3633   -0.6345    0.5300 C   0  0  2  0  0  0  0  0  0  0  0  0
    0.7457   -1.1121   -0.8706 C   0  0  2  0  0  0  0  0  0  0  0  0
    0.1292   -2.3252   -1.2358 O   0  0  0  0  0  0  0  0  0  0  0  0
    2.2613   -1.1983   -0.8248 C   0  0  2  0  0  0  0  0  0  0  0  0
    2.6723   -2.4543   -0.3468 O   0  0  0  0  0  0  0  0  0  0  0  0
   -0.9002    0.1779    0.5039 C   0  0  0  0  0  0  0  0  0  0  0  0
   -1.0370    1.5204    0.1623 C   0  0  0  0  0  0  0  0  0  0  0  0
   -2.3440    1.8691    0.1457 N   0  0  0  0  0  0  0  0  0  0  0  0
   -3.0357    0.7584    0.4590 C   0  0  0  0  0  0  0  0  0  0  0  0
   -2.1861   -0.2835    0.6734 C   0  0  0  0  0  0  0  0  0  0  0  0
   -2.6321   -1.6043    0.9703 N   0  0  0  0  0  0  0  0  0  0  0  0
   -3.9083   -1.8383    1.0758 C   0  0  0  0  0  0  0  0  0  0  0  0
   -4.8792   -0.7819    0.8976 N   0  0  0  0  0  0  0  0  0  0  0  0
   -4.5242    0.5989    0.5105 C   0  0  0  0  0  0  0  0  0  0  0  0
   -5.0993    0.9187   -0.7941 N   0  0  0  0  0  0  0  0  0  0  0  0
    5.5489    0.7318    0.8702 H   0  0  0  0  0  0  0  0  0  0  0  0
    6.7887    1.3652   -0.2740 H   0  0  0  0  0  0  0  0  0  0  0  0
    5.5192    2.4748    0.3645 H   0  0  0  0  0  0  0  0  0  0  0  0
    2.2990    1.4962   -1.2581 H   0  0  0  0  0  0  0  0  0  0  0  0
    3.1408    2.0255    0.2262 H   0  0  0  0  0  0  0  0  0  0  0  0
    3.4979   -0.4491    0.8171 H   0  0  0  0  0  0  0  0  0  0  0  0
    1.6908   -0.1051    2.0150 H   0  0  0  0  0  0  0  0  0  0  0  0
    0.2164   -1.5091    1.2060 H   0  0  0  0  0  0  0  0  0  0  0  0
    0.4685   -0.3393   -1.6236 H   0  0  0  0  0  0  0  0  0  0  0  0
    0.2639   -2.9826   -0.5049 H   0  0  0  0  0  0  0  0  0  0  0  0
    2.6799   -1.0263   -1.8441 H   0  0  0  0  0  0  0  0  0  0  0  0
    3.6442   -2.5244   -0.5370 H   0  0  0  0  0  0  0  0  0  0  0  0
   -0.2282    2.1964   -0.0836 H   0  0  0  0  0  0  0  0  0  0  0  0
   -2.7369    2.8065   -0.0928 H   0  0  0  0  0  0  0  0  0  0  0  0
   -4.2461   -2.8391    1.3090 H   0  0  0  0  0  0  0  0  0  0  0  0
   -5.8889   -1.0172    1.0245 H   0  0  0  0  0  0  0  0  0  0  0  0
   -4.9256    1.3030    1.2710 H   0  0  0  0  0  0  0  0  0  0  0  0
   -6.1411    0.8766   -0.7116 H   0  0  0  0  0  0  0  0  0  0  0  0
   -4.8159    0.1789   -1.4781 H   0  0  0  0  0  0  0  0  0  0  0  0
  1  2  1  0
  2  3  1  0
  3  4  1  0
  4  5  1  0
  5  6  1  0
  6  7  1  0
  7  8  1  0
  7  9  1  0
  9 10  1  0
  6 11  1  0
 11 12  2  0
 12 13  1  0
 13 14  1  0
 14 15  2  0
 15 16  1  0
 16 17  2  0
 17 18  1  0
 18 19  1  0
 19 20  1  0
  9  4  1  0
 15 11  1  0
 19 14  1  0
  1 21  1  0
  1 22  1  0
  1 23  1  0
  3 24  1  0
  3 25  1  0
  4 26  1  1
  5 27  1  0
  6 28  1  1
  7 29  1  6
  8 30  1  0
  9 31  1  6
 10 32  1  0
 12 33  1  0
 13 34  1  0
 17 35  1  0
 18 36  1  0
 19 37  1  0
 20 38  1  0
 20 39  1  0
M  END
$$$$
