
     RDKit          3D

 56 58  0  0  0  0  0  0  0  0999 V2000
    7.6287    3.0330    1.9729 C   0  0  0  0  0  0  0  0  0  0  0  0
    6.6297    2.1051    2.3350 O   0  0  0  0  0  0  0  0  0  0  0  0
    6.9188    0.8301    1.7923 C   0  0  0  0  0  0  0  0  0  0  0  0
    6.1350    0.6181    0.4963 C   0  0  0  0  0  0  0  0  0  0  0  0
    6.3867   -0.7271   -0.0258 N   0  0  0  0  0  0  0  0  0  0  0  0
    5.6363   -0.9043   -1.5831 S   0  0  0  0  0  6  0  0  0  0  0  0
    5.8619   -2.3031   -2.0841 O   0  0  0  0  0  0  0  0  0  0  0  0
    6.2609    0.0552   -2.5580 O   0  0  0  0  0  0  0  0  0  0  0  0
    3.9028   -0.6071   -1.4685 C   0  0  0  0  0  0  0  0  0  0  0  0
    3.0601   -1.5914   -0.9379 C   0  0  0  0  0  0  0  0  0  0  0  0
    1.6868   -1.3567   -0.8237 C   0  0  0  0  0  0  0  0  0  0  0  0
    1.1376   -0.1341   -1.2498 C   0  0  0  0  0  0  0  0  0  0  0  0
   -0.2668    0.1429   -1.1181 N   0  0  0  0  0  0  0  0  0  0  0  0
   -1.3026   -0.8325   -1.3012 C   0  0  0  0  0  0  0  0  0  0  0  0
   -2.5761   -0.5326   -0.9329 N   0  0  0  0  0  0  0  0  0  0  0  0
   -3.5955   -1.4166   -1.1039 C   0  0  0  0  0  0  0  0  0  0  0  0
   -3.3304   -2.6543   -1.7043 C   0  0  0  0  0  0  0  0  0  0  0  0
   -2.0226   -2.9436   -2.0902 C   0  0  0  0  0  0  0  0  0  0  0  0
   -1.0379   -2.0318   -1.8869 N   0  0  0  0  0  0  0  0  0  0  0  0
   -4.9748   -1.0448   -0.7137 C   0  0  0  0  0  0  0  0  0  0  0  0
   -6.1071   -1.3891   -1.4198 C   0  0  0  0  0  0  0  0  0  0  0  0
   -7.1810   -0.8195   -0.8480 N   0  0  0  0  0  0  0  0  0  0  0  0
   -6.6861   -0.1358    0.2053 C   0  0  0  0  0  0  0  0  0  0  0  0
   -7.5875    0.6389    1.1167 C   0  0  0  0  0  0  0  0  0  0  0  0
   -5.3365   -0.2685    0.3382 N   0  0  0  0  0  0  0  0  0  0  0  0
   -4.4337    0.2949    1.3663 C   0  0  0  0  0  0  0  0  0  0  0  0
   -4.9735    0.1198    2.7924 C   0  0  0  0  0  0  0  0  0  0  0  0
   -4.1054    1.7587    1.0589 C   0  0  0  0  0  0  0  0  0  0  0  0
    1.9909    0.8599   -1.7511 C   0  0  0  0  0  0  0  0  0  0  0  0
    3.3639    0.6237   -1.8659 C   0  0  0  0  0  0  0  0  0  0  0  0
    7.3282    4.0368    2.3372 H   0  0  0  0  0  0  0  0  0  0  0  0
    8.5984    2.7758    2.4532 H   0  0  0  0  0  0  0  0  0  0  0  0
    7.7474    3.0966    0.8687 H   0  0  0  0  0  0  0  0  0  0  0  0
    8.0072    0.6522    1.6164 H   0  0  0  0  0  0  0  0  0  0  0  0
    6.5919    0.0669    2.5304 H   0  0  0  0  0  0  0  0  0  0  0  0
    6.4591    1.3795   -0.2457 H   0  0  0  0  0  0  0  0  0  0  0  0
    5.0499    0.7568    0.7016 H   0  0  0  0  0  0  0  0  0  0  0  0
    5.9245   -1.4164    0.6115 H   0  0  0  0  0  0  0  0  0  0  0  0
    3.4683   -2.5358   -0.6006 H   0  0  0  0  0  0  0  0  0  0  0  0
    1.0620   -2.1188   -0.3775 H   0  0  0  0  0  0  0  0  0  0  0  0
   -0.5605    1.1324   -0.9525 H   0  0  0  0  0  0  0  0  0  0  0  0
   -4.1146   -3.3835   -1.8640 H   0  0  0  0  0  0  0  0  0  0  0  0
   -1.7901   -3.8925   -2.5547 H   0  0  0  0  0  0  0  0  0  0  0  0
   -6.1489   -1.9914   -2.3178 H   0  0  0  0  0  0  0  0  0  0  0  0
   -7.7384    0.0795    2.0625 H   0  0  0  0  0  0  0  0  0  0  0  0
   -7.1721    1.6442    1.3221 H   0  0  0  0  0  0  0  0  0  0  0  0
   -8.5794    0.7765    0.6368 H   0  0  0  0  0  0  0  0  0  0  0  0
   -3.4783   -0.2698    1.3566 H   0  0  0  0  0  0  0  0  0  0  0  0
   -5.4176   -0.8910    2.9140 H   0  0  0  0  0  0  0  0  0  0  0  0
   -4.1411    0.2214    3.5214 H   0  0  0  0  0  0  0  0  0  0  0  0
   -5.7261    0.8921    3.0480 H   0  0  0  0  0  0  0  0  0  0  0  0
   -3.6807    1.8458    0.0368 H   0  0  0  0  0  0  0  0  0  0  0  0
   -3.3542    2.1400    1.7830 H   0  0  0  0  0  0  0  0  0  0  0  0
   -5.0111    2.3947    1.1187 H   0  0  0  0  0  0  0  0  0  0  0  0
    1.5889    1.8165   -2.0604 H   0  0  0  0  0  0  0  0  0  0  0  0
    4.0046    1.4038   -2.2563 H   0  0  0  0  0  0  0  0  0  0  0  0
  1  2  1  0
  2  3  1  0
  3  4  1  0
  4  5  1  0
  5  6  1  0
  6  7  2  0
  6  8  2  0
  6  9  1  0
  9 10  2  0
 10 11  1  0
 11 12  2  0
 12 13  1  0
 13 14  1  0
 14 15  2  0
 15 16  1  0
 16 17  2  0
 17 18  1  0
 18 19  2  0
 16 20  1  0
 20 21  2  0
 21 22  1  0
 22 23  2  0
 23 24  1  0
 23 25  1  0
 25 26  1  0
 26 27  1  0
 26 28  1  0
 12 29  1  0
 29 30  2  0
 30  9  1  0
 19 14  1  0
 25 20  1  0
  1 31  1  0
  1 32  1  0
  1 33  1  0
  3 34  1  0
  3 35  1  0
  4 36  1  0
  4 37  1  0
  5 38  1  0
 10 39  1  0
 11 40  1  0
 13 41  1  0
 17 42  1  0
 18 43  1  0
 21 44  1  0
 24 45  1  0
 24 46  1  0
 24 47  1  0
 26 48  1  0
 27 49  1  0
 27 50  1  0
 27 51  1  0
 28 52  1  0
 28 53  1  0
 28 54  1  0
 29 55  1  0
 30 56  1  0
M  END
$$$$
