
     RDKit          3D

 48 50  0  0  0  0  0  0  0  0999 V2000
   -5.2835   -0.1253   -3.5989 O   0  0  0  0  0  0  0  0  0  0  0  0
   -4.4709   -0.7864   -2.7405 N   0  0  0  0  0  0  0  0  0  0  0  0
   -3.2372   -0.2031   -2.3112 C   0  0  0  0  0  0  0  0  0  0  0  0
   -2.8909    0.9244   -2.7558 O   0  0  0  0  0  0  0  0  0  0  0  0
   -2.3388   -0.9381   -1.3499 C   0  0  0  0  0  0  0  0  0  0  0  0
   -2.5533   -0.6048    0.1600 C   0  0  0  0  0  0  0  0  0  0  0  0
   -4.0241   -0.8842    0.5795 C   0  0  0  0  0  0  0  0  0  0  0  0
   -4.3768   -0.2543    1.9364 C   0  0  0  0  0  0  0  0  0  0  0  0
   -4.1074    1.1335    1.9390 O   0  0  0  0  0  0  0  0  0  0  0  0
   -2.7175    1.3550    1.8070 C   0  0  0  0  0  0  0  0  0  0  0  0
   -2.2156    0.8866    0.4338 C   0  0  0  0  0  0  0  0  0  0  0  0
   -1.4286   -1.6957    1.0915 S   0  0  0  0  0  6  0  0  0  0  0  0
   -1.5475   -1.4957    2.5756 O   0  0  0  0  0  0  0  0  0  0  0  0
   -1.7744   -3.1294    0.7965 O   0  0  0  0  0  0  0  0  0  0  0  0
    0.2525   -1.4174    0.6324 C   0  0  0  0  0  0  0  0  0  0  0  0
    1.0198   -0.4624    1.3130 C   0  0  0  0  0  0  0  0  0  0  0  0
    2.3483   -0.2334    0.9445 C   0  0  0  0  0  0  0  0  0  0  0  0
    2.9229   -0.9530   -0.1184 C   0  0  0  0  0  0  0  0  0  0  0  0
    4.2559   -0.7603   -0.5098 O   0  0  0  0  0  0  0  0  0  0  0  0
    4.9579    0.4518   -0.4340 C   0  0  0  0  0  0  0  0  0  0  0  0
    4.3153    1.6956   -0.5823 C   0  0  0  0  0  0  0  0  0  0  0  0
    5.0541    2.8812   -0.5169 C   0  0  0  0  0  0  0  0  0  0  0  0
    6.4363    2.8349   -0.3158 C   0  0  0  0  0  0  0  0  0  0  0  0
    7.0826    1.6024   -0.1875 C   0  0  0  0  0  0  0  0  0  0  0  0
    6.3463    0.4152   -0.2529 C   0  0  0  0  0  0  0  0  0  0  0  0
    2.1616   -1.9240   -0.7785 C   0  0  0  0  0  0  0  0  0  0  0  0
    0.8326   -2.1526   -0.4106 C   0  0  0  0  0  0  0  0  0  0  0  0
   -5.9016    0.3882   -3.0183 H   0  0  0  0  0  0  0  0  0  0  0  0
   -4.7480   -1.7365   -2.4059 H   0  0  0  0  0  0  0  0  0  0  0  0
   -1.2879   -0.7115   -1.6312 H   0  0  0  0  0  0  0  0  0  0  0  0
   -2.4798   -2.0286   -1.5131 H   0  0  0  0  0  0  0  0  0  0  0  0
   -4.2218   -1.9773    0.6108 H   0  0  0  0  0  0  0  0  0  0  0  0
   -4.7257   -0.4432   -0.1577 H   0  0  0  0  0  0  0  0  0  0  0  0
   -5.4651   -0.3933    2.1086 H   0  0  0  0  0  0  0  0  0  0  0  0
   -3.8693   -0.7672    2.7797 H   0  0  0  0  0  0  0  0  0  0  0  0
   -2.5337    2.4472    1.8881 H   0  0  0  0  0  0  0  0  0  0  0  0
   -2.1498    0.8877    2.6390 H   0  0  0  0  0  0  0  0  0  0  0  0
   -1.1242    1.0683    0.3496 H   0  0  0  0  0  0  0  0  0  0  0  0
   -2.7098    1.5347   -0.3188 H   0  0  0  0  0  0  0  0  0  0  0  0
    0.5901    0.1056    2.1284 H   0  0  0  0  0  0  0  0  0  0  0  0
    2.9304    0.4909    1.4988 H   0  0  0  0  0  0  0  0  0  0  0  0
    3.2505    1.7488   -0.7676 H   0  0  0  0  0  0  0  0  0  0  0  0
    4.5560    3.8355   -0.6294 H   0  0  0  0  0  0  0  0  0  0  0  0
    7.0072    3.7531   -0.2667 H   0  0  0  0  0  0  0  0  0  0  0  0
    8.1541    1.5667   -0.0393 H   0  0  0  0  0  0  0  0  0  0  0  0
    6.8540   -0.5359   -0.1550 H   0  0  0  0  0  0  0  0  0  0  0  0
    2.5989   -2.4960   -1.5869 H   0  0  0  0  0  0  0  0  0  0  0  0
    0.2557   -2.8973   -0.9437 H   0  0  0  0  0  0  0  0  0  0  0  0
  1  2  1  0
  2  3  1  0
  3  4  2  0
  3  5  1  0
  5  6  1  0
  6  7  1  0
  7  8  1  0
  8  9  1  0
  9 10  1  0
 10 11  1  0
  6 12  1  0
 12 13  2  0
 12 14  2  0
 12 15  1  0
 15 16  2  0
 16 17  1  0
 17 18  2  0
 18 19  1  0
 19 20  1  0
 20 21  2  0
 21 22  1  0
 22 23  2  0
 23 24  1  0
 24 25  2  0
 18 26  1  0
 26 27  2  0
 11  6  1  0
 27 15  1  0
 25 20  1  0
  1 28  1  0
  2 29  1  0
  5 30  1  0
  5 31  1  0
  7 32  1  0
  7 33  1  0
  8 34  1  0
  8 35  1  0
 10 36  1  0
 10 37  1  0
 11 38  1  0
 11 39  1  0
 16 40  1  0
 17 41  1  0
 21 42  1  0
 22 43  1  0
 23 44  1  0
 24 45  1  0
 25 46  1  0
 26 47  1  0
 27 48  1  0
M  END
$$$$
