
     RDKit          3D

 70 74  0  0  0  0  0  0  0  0999 V2000
   -1.0827   -4.4861    2.1589 C   0  0  0  0  0  0  0  0  0  0  0  0
   -1.6959   -3.4828    1.1869 C   0  0  0  0  0  0  0  0  0  0  0  0
   -1.6602   -2.0620    1.7610 C   0  0  0  0  0  0  0  0  0  0  0  0
   -2.2807   -1.0726    0.7890 C   0  0  0  0  0  0  0  0  0  0  0  0
   -1.4347   -0.4053   -0.1279 C   0  0  0  0  0  0  0  0  0  0  0  0
   -0.0611   -0.7025   -0.1259 O   0  0  0  0  0  0  0  0  0  0  0  0
    0.9083   -0.1000   -0.9801 C   0  0  0  0  0  0  0  0  0  0  0  0
    2.2900   -0.6850   -0.6911 C   0  0  0  0  0  0  0  0  0  0  0  0
    2.7498   -0.3738    0.7383 C   0  0  0  0  0  0  0  0  0  0  0  0
    4.0534   -0.9058    0.9733 O   0  0  0  0  0  0  0  0  0  0  0  0
    5.2562   -0.3598    0.4960 C   0  0  0  0  0  0  0  0  0  0  0  0
    6.4450   -1.0764    0.7346 C   0  0  0  0  0  0  0  0  0  0  0  0
    7.6439   -0.5443    0.2679 C   0  0  0  0  0  0  0  0  0  0  0  0
    7.6961    0.6463   -0.4072 C   0  0  0  0  0  0  0  0  0  0  0  0
    6.5410    1.3865   -0.6648 C   0  0  0  0  0  0  0  0  0  0  0  0
    5.3131    0.8777   -0.2051 C   0  0  0  0  0  0  0  0  0  0  0  0
    8.9676    0.9322   -0.7544 N   0  0  0  0  0  0  0  0  0  0  0  0
    9.4492    2.0706   -1.5358 C   0  0  0  0  0  0  0  0  0  0  0  0
    9.2683    1.8014   -2.9948 C   0  0  0  0  0  0  0  0  0  0  0  0
   10.1924    1.0122   -3.6718 O   0  0  0  0  0  0  0  0  0  0  0  0
    8.2615    2.2546   -3.6017 O   0  0  0  0  0  0  0  0  0  0  0  0
    9.7222   -0.0997   -0.3059 C   0  0  0  0  0  0  0  0  0  0  0  0
    8.9290   -1.0380    0.3451 C   0  0  0  0  0  0  0  0  0  0  0  0
   -1.9754    0.5329   -1.0226 C   0  0  0  0  0  0  0  0  0  0  0  0
   -3.3397    0.8008   -1.0323 C   0  0  0  0  0  0  0  0  0  0  0  0
   -4.2015    0.1258   -0.1624 C   0  0  0  0  0  0  0  0  0  0  0  0
   -3.6852   -0.8313    0.7494 C   0  0  0  0  0  0  0  0  0  0  0  0
   -4.5960   -1.5221    1.5788 C   0  0  0  0  0  0  0  0  0  0  0  0
   -5.9642   -1.2492    1.5239 C   0  0  0  0  0  0  0  0  0  0  0  0
   -6.4668   -0.2783    0.6482 C   0  0  0  0  0  0  0  0  0  0  0  0
   -5.5790    0.3928   -0.2059 C   0  0  0  0  0  0  0  0  0  0  0  0
   -7.9250   -0.0113    0.5958 C   0  0  0  0  0  0  0  0  0  0  0  0
   -8.7255   -0.9613    0.8152 O   0  0  0  0  0  0  0  0  0  0  0  0
   -8.4755    1.3331    0.2955 C   0  0  0  0  0  0  0  0  0  0  0  0
   -7.8008    2.5002    0.7012 C   0  0  0  0  0  0  0  0  0  0  0  0
   -8.3398    3.7606    0.4257 C   0  0  0  0  0  0  0  0  0  0  0  0
   -9.5596    3.8698   -0.2460 C   0  0  0  0  0  0  0  0  0  0  0  0
  -10.2458    2.7183   -0.6387 C   0  0  0  0  0  0  0  0  0  0  0  0
   -9.7111    1.4554   -0.3654 C   0  0  0  0  0  0  0  0  0  0  0  0
   -0.0220   -4.2265    2.3633 H   0  0  0  0  0  0  0  0  0  0  0  0
   -1.6500   -4.4934    3.1140 H   0  0  0  0  0  0  0  0  0  0  0  0
   -1.1201   -5.5035    1.7157 H   0  0  0  0  0  0  0  0  0  0  0  0
   -1.1263   -3.5125    0.2323 H   0  0  0  0  0  0  0  0  0  0  0  0
   -2.7451   -3.7821    0.9760 H   0  0  0  0  0  0  0  0  0  0  0  0
   -0.6066   -1.7840    1.9800 H   0  0  0  0  0  0  0  0  0  0  0  0
   -2.1682   -2.0214    2.7465 H   0  0  0  0  0  0  0  0  0  0  0  0
    0.9264    1.0000   -0.8184 H   0  0  0  0  0  0  0  0  0  0  0  0
    0.6479   -0.3075   -2.0406 H   0  0  0  0  0  0  0  0  0  0  0  0
    2.2602   -1.7868   -0.8362 H   0  0  0  0  0  0  0  0  0  0  0  0
    3.0128   -0.2644   -1.4213 H   0  0  0  0  0  0  0  0  0  0  0  0
    2.7302    0.7178    0.9438 H   0  0  0  0  0  0  0  0  0  0  0  0
    2.0508   -0.8563    1.4540 H   0  0  0  0  0  0  0  0  0  0  0  0
    6.4275   -2.0210    1.2637 H   0  0  0  0  0  0  0  0  0  0  0  0
    6.5786    2.3251   -1.2013 H   0  0  0  0  0  0  0  0  0  0  0  0
    4.4194    1.4526   -0.3995 H   0  0  0  0  0  0  0  0  0  0  0  0
   10.5272    2.2436   -1.3276 H   0  0  0  0  0  0  0  0  0  0  0  0
    8.9041    2.9935   -1.2425 H   0  0  0  0  0  0  0  0  0  0  0  0
   10.0763    0.8059   -4.6567 H   0  0  0  0  0  0  0  0  0  0  0  0
   10.7923   -0.1783   -0.4490 H   0  0  0  0  0  0  0  0  0  0  0  0
    9.2516   -1.9644    0.8016 H   0  0  0  0  0  0  0  0  0  0  0  0
   -1.3456    1.0633   -1.7233 H   0  0  0  0  0  0  0  0  0  0  0  0
   -3.7247    1.5316   -1.7342 H   0  0  0  0  0  0  0  0  0  0  0  0
   -4.2760   -2.2891    2.2678 H   0  0  0  0  0  0  0  0  0  0  0  0
   -6.6333   -1.7951    2.1780 H   0  0  0  0  0  0  0  0  0  0  0  0
   -5.9629    1.1123   -0.9202 H   0  0  0  0  0  0  0  0  0  0  0  0
   -6.8658    2.4387    1.2434 H   0  0  0  0  0  0  0  0  0  0  0  0
   -7.8140    4.6534    0.7388 H   0  0  0  0  0  0  0  0  0  0  0  0
   -9.9756    4.8464   -0.4574 H   0  0  0  0  0  0  0  0  0  0  0  0
  -11.1933    2.8039   -1.1548 H   0  0  0  0  0  0  0  0  0  0  0  0
  -10.2567    0.5743   -0.6804 H   0  0  0  0  0  0  0  0  0  0  0  0
  1  2  1  0
  2  3  1  0
  3  4  1  0
  4  5  2  0
  5  6  1  0
  6  7  1  0
  7  8  1  0
  8  9  1  0
  9 10  1  0
 10 11  1  0
 11 12  2  0
 12 13  1  0
 13 14  2  0
 14 15  1  0
 15 16  2  0
 14 17  1  0
 17 18  1  0
 18 19  1  0
 19 20  1  0
 19 21  2  0
 17 22  1  0
 22 23  2  0
  5 24  1  0
 24 25  2  0
 25 26  1  0
 26 27  2  0
 27 28  1  0
 28 29  2  0
 29 30  1  0
 30 31  2  0
 30 32  1  0
 32 33  2  0
 32 34  1  0
 34 35  2  0
 35 36  1  0
 36 37  2  0
 37 38  1  0
 38 39  2  0
 27  4  1  0
 39 34  1  0
 16 11  1  0
 31 26  1  0
 23 13  1  0
  1 40  1  0
  1 41  1  0
  1 42  1  0
  2 43  1  0
  2 44  1  0
  3 45  1  0
  3 46  1  0
  7 47  1  0
  7 48  1  0
  8 49  1  0
  8 50  1  0
  9 51  1  0
  9 52  1  0
 12 53  1  0
 15 54  1  0
 16 55  1  0
 18 56  1  0
 18 57  1  0
 20 58  1  0
 22 59  1  0
 23 60  1  0
 24 61  1  0
 25 62  1  0
 28 63  1  0
 29 64  1  0
 31 65  1  0
 35 66  1  0
 36 67  1  0
 37 68  1  0
 38 69  1  0
 39 70  1  0
M  END
$$$$
