
     RDKit          3D

 42 43  0  0  0  0  0  0  0  0999 V2000
   -4.9975    2.0663   -0.7042 O   0  0  0  0  0  0  0  0  0  0  0  0
   -5.8146    1.4089    0.2100 C   0  0  0  0  0  0  0  0  0  0  0  0
   -7.0357    1.7090    0.2931 O   0  0  0  0  0  0  0  0  0  0  0  0
   -5.2475    0.3259    1.0751 C   0  0  0  0  0  0  0  0  0  0  0  0
   -5.6492   -1.0731    0.5802 C   0  0  0  0  0  0  0  0  0  0  0  0
   -5.0704   -1.4300   -0.7982 C   0  0  0  0  0  0  0  0  0  0  0  0
   -3.5720   -1.5123   -0.7652 C   0  0  0  0  0  0  0  0  0  0  0  0
   -3.0209   -2.5351   -0.2752 O   0  0  0  0  0  0  0  0  0  0  0  0
   -2.7788   -0.4357   -1.2888 N   0  0  0  0  0  0  0  0  0  0  0  0
   -1.3844   -0.2482   -0.9937 C   0  0  0  0  0  0  0  0  0  0  0  0
   -0.8459   -0.5997    0.2555 C   0  0  0  0  0  0  0  0  0  0  0  0
    0.5078   -0.3834    0.5301 C   0  0  0  0  0  0  0  0  0  0  0  0
    1.3502    0.1937   -0.4406 C   0  0  0  0  0  0  0  0  0  0  0  0
    2.7905    0.4549   -0.1960 C   0  0  0  0  0  0  0  0  0  0  0  0
    3.5218   -0.2071    0.7148 C   0  0  0  0  0  0  0  0  0  0  0  0
    4.9623    0.0527    0.9604 C   0  0  0  0  0  0  0  0  0  0  0  0
    5.8051    0.6406   -0.0062 C   0  0  0  0  0  0  0  0  0  0  0  0
    7.1592    0.8529    0.2724 C   0  0  0  0  0  0  0  0  0  0  0  0
    7.6896    0.4757    1.5076 C   0  0  0  0  0  0  0  0  0  0  0  0
    6.8688   -0.1220    2.4658 C   0  0  0  0  0  0  0  0  0  0  0  0
    5.5146   -0.3377    2.1930 C   0  0  0  0  0  0  0  0  0  0  0  0
    0.7970    0.5799   -1.6720 C   0  0  0  0  0  0  0  0  0  0  0  0
   -0.5564    0.3631   -1.9442 C   0  0  0  0  0  0  0  0  0  0  0  0
   -5.3690    2.7921   -1.3052 H   0  0  0  0  0  0  0  0  0  0  0  0
   -5.6283    0.4619    2.1103 H   0  0  0  0  0  0  0  0  0  0  0  0
   -4.1412    0.4185    1.1186 H   0  0  0  0  0  0  0  0  0  0  0  0
   -5.3099   -1.8271    1.3239 H   0  0  0  0  0  0  0  0  0  0  0  0
   -6.7583   -1.1394    0.5324 H   0  0  0  0  0  0  0  0  0  0  0  0
   -5.4741   -2.4175   -1.1097 H   0  0  0  0  0  0  0  0  0  0  0  0
   -5.4024   -0.6904   -1.5576 H   0  0  0  0  0  0  0  0  0  0  0  0
   -3.2291    0.2186   -1.9680 H   0  0  0  0  0  0  0  0  0  0  0  0
   -1.4760   -1.0108    1.0331 H   0  0  0  0  0  0  0  0  0  0  0  0
    0.8753   -0.6388    1.5140 H   0  0  0  0  0  0  0  0  0  0  0  0
    3.2575    1.2131   -0.8095 H   0  0  0  0  0  0  0  0  0  0  0  0
    3.0540   -0.9657    1.3274 H   0  0  0  0  0  0  0  0  0  0  0  0
    5.4369    0.9148   -0.9846 H   0  0  0  0  0  0  0  0  0  0  0  0
    7.8000    1.3038   -0.4744 H   0  0  0  0  0  0  0  0  0  0  0  0
    8.7382    0.6402    1.7197 H   0  0  0  0  0  0  0  0  0  0  0  0
    7.2819   -0.4199    3.4208 H   0  0  0  0  0  0  0  0  0  0  0  0
    4.8943   -0.8025    2.9499 H   0  0  0  0  0  0  0  0  0  0  0  0
    1.4164    1.0448   -2.4296 H   0  0  0  0  0  0  0  0  0  0  0  0
   -0.9597    0.6646   -2.9029 H   0  0  0  0  0  0  0  0  0  0  0  0
  1  2  1  0
  2  3  2  0
  2  4  1  0
  4  5  1  0
  5  6  1  0
  6  7  1  0
  7  8  2  0
  7  9  1  0
  9 10  1  0
 10 11  2  0
 11 12  1  0
 12 13  2  0
 13 14  1  0
 14 15  2  0
 15 16  1  0
 16 17  2  0
 17 18  1  0
 18 19  2  0
 19 20  1  0
 20 21  2  0
 13 22  1  0
 22 23  2  0
 23 10  1  0
 21 16  1  0
  1 24  1  0
  4 25  1  0
  4 26  1  0
  5 27  1  0
  5 28  1  0
  6 29  1  0
  6 30  1  0
  9 31  1  0
 11 32  1  0
 12 33  1  0
 14 34  1  0
 15 35  1  0
 17 36  1  0
 18 37  1  0
 19 38  1  0
 20 39  1  0
 21 40  1  0
 22 41  1  0
 23 42  1  0
M  END
$$$$
