
     RDKit          3D

 67 68  0  0  0  0  0  0  0  0999 V2000
   -4.2733    3.5456    2.2687 C   0  0  0  0  0  0  0  0  0  0  0  0
   -3.4118    2.9585    1.3202 O   0  0  0  0  0  0  0  0  0  0  0  0
   -3.5089    1.5525    1.4025 C   0  0  0  0  0  0  0  0  0  0  0  0
   -2.5505    0.9336    0.4027 C   0  0  0  0  0  0  0  0  0  0  0  0
   -1.2523    0.5258    0.8049 C   0  0  0  0  0  0  0  0  0  0  0  0
   -0.7792    0.7671    2.1903 C   0  0  0  0  0  0  0  0  0  0  0  0
   -0.4776    2.0701    2.6162 C   0  0  0  0  0  0  0  0  0  0  0  0
   -0.0288    2.2962    3.9209 C   0  0  0  0  0  0  0  0  0  0  0  0
    0.1246    1.2237    4.8049 C   0  0  0  0  0  0  0  0  0  0  0  0
    0.5615    1.4445    6.0692 F   0  0  0  0  0  0  0  0  0  0  0  0
   -0.1721   -0.0767    4.3850 C   0  0  0  0  0  0  0  0  0  0  0  0
   -0.6239   -0.3062    3.0820 C   0  0  0  0  0  0  0  0  0  0  0  0
   -0.3945   -0.1115   -0.1196 C   0  0  0  0  0  0  0  0  0  0  0  0
    0.9714   -0.4985    0.2907 C   0  0  0  0  0  0  0  0  0  0  0  0
    1.2904   -1.7748    0.5201 C   0  0  0  0  0  0  0  0  0  0  0  0
    2.6787   -2.1697    0.9474 C   0  0  1  0  0  0  0  0  0  0  0  0
    2.6569   -3.4890    1.4270 O   0  0  0  0  0  0  0  0  0  0  0  0
    3.6462   -2.0718   -0.2478 C   0  0  0  0  0  0  0  0  0  0  0  0
    5.1266   -2.1920    0.1740 C   0  0  1  0  0  0  0  0  0  0  0  0
    5.3687   -3.4712    0.7039 O   0  0  0  0  0  0  0  0  0  0  0  0
    6.0672   -1.9834   -1.0250 C   0  0  0  0  0  0  0  0  0  0  0  0
    6.0425   -0.5684   -1.5193 C   0  0  0  0  0  0  0  0  0  0  0  0
    6.6721    0.4326   -0.7863 O   0  0  0  0  0  0  0  0  0  0  0  0
    5.4337   -0.2808   -2.5846 O   0  0  0  0  0  0  0  0  0  0  0  0
   -0.8348   -0.3079   -1.4462 C   0  0  0  0  0  0  0  0  0  0  0  0
    0.0614   -0.9042   -2.5201 C   0  0  0  0  0  0  0  0  0  0  0  0
    0.9101    0.1959   -3.1643 C   0  0  0  0  0  0  0  0  0  0  0  0
   -0.7523   -1.6509   -3.5865 C   0  0  0  0  0  0  0  0  0  0  0  0
   -2.0538    0.1647   -1.8111 N   0  0  0  0  0  0  0  0  0  0  0  0
   -2.9117    0.7867   -0.9607 C   0  0  0  0  0  0  0  0  0  0  0  0
   -4.2490    1.2486   -1.5165 C   0  0  0  0  0  0  0  0  0  0  0  0
   -4.0908    1.8522   -2.9194 C   0  0  0  0  0  0  0  0  0  0  0  0
   -5.2363    0.0777   -1.5463 C   0  0  0  0  0  0  0  0  0  0  0  0
   -4.1983    4.6486    2.1784 H   0  0  0  0  0  0  0  0  0  0  0  0
   -5.3334    3.2640    2.0805 H   0  0  0  0  0  0  0  0  0  0  0  0
   -3.9748    3.2725    3.3053 H   0  0  0  0  0  0  0  0  0  0  0  0
   -4.5456    1.2084    1.1948 H   0  0  0  0  0  0  0  0  0  0  0  0
   -3.2810    1.1959    2.4318 H   0  0  0  0  0  0  0  0  0  0  0  0
   -0.5876    2.9069    1.9374 H   0  0  0  0  0  0  0  0  0  0  0  0
    0.2016    3.3028    4.2450 H   0  0  0  0  0  0  0  0  0  0  0  0
   -0.0531   -0.9074    5.0686 H   0  0  0  0  0  0  0  0  0  0  0  0
   -0.8539   -1.3167    2.7673 H   0  0  0  0  0  0  0  0  0  0  0  0
    1.7006    0.2845    0.4614 H   0  0  0  0  0  0  0  0  0  0  0  0
    0.5347   -2.5442    0.4055 H   0  0  0  0  0  0  0  0  0  0  0  0
    3.0203   -1.4805    1.7560 H   0  0  0  0  0  0  0  0  0  0  0  0
    2.2540   -3.4577    2.3343 H   0  0  0  0  0  0  0  0  0  0  0  0
    3.4994   -1.0890   -0.7463 H   0  0  0  0  0  0  0  0  0  0  0  0
    3.4005   -2.8635   -0.9903 H   0  0  0  0  0  0  0  0  0  0  0  0
    5.3559   -1.4058    0.9345 H   0  0  0  0  0  0  0  0  0  0  0  0
    5.3220   -3.3954    1.6928 H   0  0  0  0  0  0  0  0  0  0  0  0
    5.7967   -2.6807   -1.8485 H   0  0  0  0  0  0  0  0  0  0  0  0
    7.1078   -2.2218   -0.7157 H   0  0  0  0  0  0  0  0  0  0  0  0
    6.6549    1.3954   -1.1007 H   0  0  0  0  0  0  0  0  0  0  0  0
    0.7487   -1.6530   -2.0759 H   0  0  0  0  0  0  0  0  0  0  0  0
    1.5847   -0.2400   -3.9318 H   0  0  0  0  0  0  0  0  0  0  0  0
    1.5394    0.6940   -2.3961 H   0  0  0  0  0  0  0  0  0  0  0  0
    0.2616    0.9591   -3.6463 H   0  0  0  0  0  0  0  0  0  0  0  0
   -1.4089   -0.9528   -4.1495 H   0  0  0  0  0  0  0  0  0  0  0  0
   -0.0691   -2.1503   -4.3064 H   0  0  0  0  0  0  0  0  0  0  0  0
   -1.3815   -2.4315   -3.1076 H   0  0  0  0  0  0  0  0  0  0  0  0
   -4.6787    2.0556   -0.8877 H   0  0  0  0  0  0  0  0  0  0  0  0
   -3.7472    1.0871   -3.6487 H   0  0  0  0  0  0  0  0  0  0  0  0
   -5.0627    2.2611   -3.2700 H   0  0  0  0  0  0  0  0  0  0  0  0
   -3.3537    2.6834   -2.8951 H   0  0  0  0  0  0  0  0  0  0  0  0
   -4.8659   -0.7302   -2.2139 H   0  0  0  0  0  0  0  0  0  0  0  0
   -5.3715   -0.3392   -0.5259 H   0  0  0  0  0  0  0  0  0  0  0  0
   -6.2266    0.4212   -1.9141 H   0  0  0  0  0  0  0  0  0  0  0  0
  1  2  1  0
  2  3  1  0
  3  4  1  0
  4  5  2  0
  5  6  1  0
  6  7  2  0
  7  8  1  0
  8  9  2  0
  9 10  1  0
  9 11  1  0
 11 12  2  0
  5 13  1  0
 13 14  1  0
 14 15  2  0
 15 16  1  0
 16 17  1  0
 16 18  1  0
 18 19  1  0
 19 20  1  0
 19 21  1  0
 21 22  1  0
 22 23  1  0
 22 24  2  0
 13 25  2  0
 25 26  1  0
 26 27  1  0
 26 28  1  0
 25 29  1  0
 29 30  2  0
 30 31  1  0
 31 32  1  0
 31 33  1  0
 30  4  1  0
 12  6  1  0
  1 34  1  0
  1 35  1  0
  1 36  1  0
  3 37  1  0
  3 38  1  0
  7 39  1  0
  8 40  1  0
 11 41  1  0
 12 42  1  0
 14 43  1  0
 15 44  1  0
 16 45  1  1
 17 46  1  0
 18 47  1  0
 18 48  1  0
 19 49  1  1
 20 50  1  0
 21 51  1  0
 21 52  1  0
 23 53  1  0
 26 54  1  0
 27 55  1  0
 27 56  1  0
 27 57  1  0
 28 58  1  0
 28 59  1  0
 28 60  1  0
 31 61  1  0
 32 62  1  0
 32 63  1  0
 32 64  1  0
 33 65  1  0
 33 66  1  0
 33 67  1  0
M  END
$$$$
