
     RDKit          3D

 30 32  0  0  0  0  0  0  0  0999 V2000
   -4.7261    0.7980    0.3764 C   0  0  0  0  0  0  0  0  0  0  0  0
   -3.3532    0.2212    0.1921 C   0  0  0  0  0  0  0  0  0  0  0  0
   -3.1545   -1.1615    0.2692 C   0  0  0  0  0  0  0  0  0  0  0  0
   -1.8711   -1.7070    0.1348 C   0  0  0  0  0  0  0  0  0  0  0  0
   -1.7042   -3.0897    0.2191 O   0  0  0  0  0  0  0  0  0  0  0  0
   -0.7598   -0.8581   -0.0717 C   0  0  0  0  0  0  0  0  0  0  0  0
    0.6106   -1.4031   -0.2580 C   0  0  0  0  0  0  0  0  0  0  0  0
    0.7579   -2.6127   -0.5787 O   0  0  0  0  0  0  0  0  0  0  0  0
    1.7926   -0.4998   -0.1811 C   0  0  0  0  0  0  0  0  0  0  0  0
    1.5807    0.8951   -0.2913 C   0  0  0  0  0  0  0  0  0  0  0  0
    2.6812    1.7662   -0.3694 C   0  0  0  0  0  0  0  0  0  0  0  0
    3.9853    1.2689   -0.3229 C   0  0  0  0  0  0  0  0  0  0  0  0
    5.0776    2.1287   -0.4169 O   0  0  0  0  0  0  0  0  0  0  0  0
    4.1995   -0.0988   -0.1663 C   0  0  0  0  0  0  0  0  0  0  0  0
    3.1236   -0.9854   -0.0591 C   0  0  0  0  0  0  0  0  0  0  0  0
    3.4246   -2.3239    0.2036 O   0  0  0  0  0  0  0  0  0  0  0  0
    0.2023    1.4392   -0.3151 C   0  0  0  0  0  0  0  0  0  0  0  0
    0.0156    2.6760   -0.4834 O   0  0  0  0  0  0  0  0  0  0  0  0
   -0.9562    0.5382   -0.1208 C   0  0  0  0  0  0  0  0  0  0  0  0
   -2.2518    1.0668    0.0150 C   0  0  0  0  0  0  0  0  0  0  0  0
   -5.5017    0.0897    0.0146 H   0  0  0  0  0  0  0  0  0  0  0  0
   -4.8337    1.7442   -0.1957 H   0  0  0  0  0  0  0  0  0  0  0  0
   -4.8983    1.0042    1.4534 H   0  0  0  0  0  0  0  0  0  0  0  0
   -3.9994   -1.8189    0.4353 H   0  0  0  0  0  0  0  0  0  0  0  0
   -2.4884   -3.7135    0.3704 H   0  0  0  0  0  0  0  0  0  0  0  0
    2.5307    2.8342   -0.4672 H   0  0  0  0  0  0  0  0  0  0  0  0
    4.9574    3.1289   -0.5267 H   0  0  0  0  0  0  0  0  0  0  0  0
    5.2129   -0.4747   -0.0964 H   0  0  0  0  0  0  0  0  0  0  0  0
    2.7537   -2.9910    0.5575 H   0  0  0  0  0  0  0  0  0  0  0  0
   -2.4080    2.1386   -0.0139 H   0  0  0  0  0  0  0  0  0  0  0  0
  1  2  1  0
  2  3  2  0
  3  4  1  0
  4  5  1  0
  4  6  2  0
  6  7  1  0
  7  8  2  0
  7  9  1  0
  9 10  2  0
 10 11  1  0
 11 12  2  0
 12 13  1  0
 12 14  1  0
 14 15  2  0
 15 16  1  0
 10 17  1  0
 17 18  2  0
 17 19  1  0
 19 20  2  0
 20  2  1  0
 19  6  1  0
 15  9  1  0
  1 21  1  0
  1 22  1  0
  1 23  1  0
  3 24  1  0
  5 25  1  0
 11 26  1  0
 13 27  1  0
 14 28  1  0
 16 29  1  0
 20 30  1  0
M  END
$$$$
