
     RDKit          3D

 56 59  0  0  0  0  0  0  0  0999 V2000
    6.8098    0.4244   -0.0022 C   0  0  1  0  0  0  0  0  0  0  0  0
    6.3680    1.7229    0.7147 C   0  0  0  0  0  0  0  0  0  0  0  0
    4.9489    1.6155    1.2799 C   0  0  0  0  0  0  0  0  0  0  0  0
    3.9270    1.4223    0.1383 C   0  0  1  0  0  0  0  0  0  0  0  0
    4.4445    0.4888   -0.9911 C   0  0  0  0  0  0  0  0  0  0  0  0
    5.6133   -0.3996   -0.5419 C   0  0  0  0  0  0  0  0  0  0  0  0
    2.5970    0.9644    0.6864 C   0  0  0  0  0  0  0  0  0  0  0  0
    1.6482    1.7922    0.7583 O   0  0  0  0  0  0  0  0  0  0  0  0
    2.4257   -0.3749    1.1802 N   0  0  0  0  0  0  0  0  0  0  0  0
    1.1497   -0.9827    1.4330 C   0  0  0  0  0  0  0  0  0  0  0  0
    0.0213   -0.6772    0.6527 C   0  0  0  0  0  0  0  0  0  0  0  0
   -1.2052   -1.3111    0.9167 C   0  0  0  0  0  0  0  0  0  0  0  0
   -1.2693   -2.2537    1.9555 C   0  0  0  0  0  0  0  0  0  0  0  0
   -0.1220   -2.5497    2.6919 C   0  0  0  0  0  0  0  0  0  0  0  0
    1.0487   -1.9197    2.4142 N   0  0  0  0  0  0  0  0  0  0  0  0
   -2.4099   -0.9977    0.1062 C   0  0  0  0  0  0  0  0  0  0  0  0
   -3.6697   -0.8715    0.7162 C   0  0  0  0  0  0  0  0  0  0  0  0
   -4.7959   -0.5673   -0.0608 C   0  0  0  0  0  0  0  0  0  0  0  0
   -6.0875   -0.4625    0.5606 N   0  0  0  0  0  0  0  0  0  0  0  0
   -7.2452    0.0999   -0.0799 C   0  0  0  0  0  0  0  0  0  0  0  0
   -8.5152   -0.4233    0.2096 C   0  0  0  0  0  0  0  0  0  0  0  0
   -9.6578    0.1229   -0.3833 C   0  0  0  0  0  0  0  0  0  0  0  0
   -9.5430    1.2066   -1.2581 C   0  0  0  0  0  0  0  0  0  0  0  0
  -10.6518    1.7370   -1.8302 F   0  0  0  0  0  0  0  0  0  0  0  0
   -8.2855    1.7505   -1.5341 C   0  0  0  0  0  0  0  0  0  0  0  0
   -7.1406    1.2063   -0.9435 C   0  0  0  0  0  0  0  0  0  0  0  0
   -4.6610   -0.4199   -1.4078 N   0  0  0  0  0  0  0  0  0  0  0  0
   -3.4580   -0.5364   -2.0271 C   0  0  0  0  0  0  0  0  0  0  0  0
   -2.3123   -0.8243   -1.2843 C   0  0  0  0  0  0  0  0  0  0  0  0
    7.6685    0.7770   -1.0760 O   0  0  0  0  0  0  0  0  0  0  0  0
    8.7494   -0.1251   -1.1705 C   0  0  0  0  0  0  0  0  0  0  0  0
    7.3211   -0.2025    0.7705 H   0  0  0  0  0  0  0  0  0  0  0  0
    6.4012    2.5814    0.0070 H   0  0  0  0  0  0  0  0  0  0  0  0
    7.0776    1.9507    1.5398 H   0  0  0  0  0  0  0  0  0  0  0  0
    4.7047    2.5431    1.8423 H   0  0  0  0  0  0  0  0  0  0  0  0
    4.9123    0.7676    1.9986 H   0  0  0  0  0  0  0  0  0  0  0  0
    3.7671    2.4227   -0.3257 H   0  0  0  0  0  0  0  0  0  0  0  0
    3.6268   -0.1533   -1.3868 H   0  0  0  0  0  0  0  0  0  0  0  0
    4.7963    1.1114   -1.8436 H   0  0  0  0  0  0  0  0  0  0  0  0
    5.2591   -1.0927    0.2501 H   0  0  0  0  0  0  0  0  0  0  0  0
    5.9382   -1.0329   -1.3953 H   0  0  0  0  0  0  0  0  0  0  0  0
    3.2747   -0.9141    1.4581 H   0  0  0  0  0  0  0  0  0  0  0  0
    0.0967    0.0378   -0.1556 H   0  0  0  0  0  0  0  0  0  0  0  0
   -2.1906   -2.7770    2.1785 H   0  0  0  0  0  0  0  0  0  0  0  0
   -0.1608   -3.2864    3.4831 H   0  0  0  0  0  0  0  0  0  0  0  0
   -3.7751   -0.9858    1.7881 H   0  0  0  0  0  0  0  0  0  0  0  0
   -6.2138   -0.8928    1.5053 H   0  0  0  0  0  0  0  0  0  0  0  0
   -8.6171   -1.2614    0.8876 H   0  0  0  0  0  0  0  0  0  0  0  0
  -10.6321   -0.2935   -0.1618 H   0  0  0  0  0  0  0  0  0  0  0  0
   -8.1974    2.6003   -2.1988 H   0  0  0  0  0  0  0  0  0  0  0  0
   -6.1812    1.6652   -1.1422 H   0  0  0  0  0  0  0  0  0  0  0  0
   -3.3918   -0.4114   -3.0996 H   0  0  0  0  0  0  0  0  0  0  0  0
   -1.3640   -0.9318   -1.7956 H   0  0  0  0  0  0  0  0  0  0  0  0
    8.3969   -1.1755   -1.2725 H   0  0  0  0  0  0  0  0  0  0  0  0
    9.3398    0.1226   -2.0763 H   0  0  0  0  0  0  0  0  0  0  0  0
    9.4214   -0.0256   -0.2899 H   0  0  0  0  0  0  0  0  0  0  0  0
  1  2  1  0
  2  3  1  0
  3  4  1  0
  4  5  1  0
  5  6  1  0
  4  7  1  0
  7  8  2  0
  7  9  1  0
  9 10  1  0
 10 11  2  0
 11 12  1  0
 12 13  2  0
 13 14  1  0
 14 15  2  0
 12 16  1  0
 16 17  2  0
 17 18  1  0
 18 19  1  0
 19 20  1  0
 20 21  2  0
 21 22  1  0
 22 23  2  0
 23 24  1  0
 23 25  1  0
 25 26  2  0
 18 27  2  0
 27 28  1  0
 28 29  2  0
  1 30  1  0
 30 31  1  0
  6  1  1  0
 15 10  1  0
 29 16  1  0
 26 20  1  0
  1 32  1  1
  2 33  1  0
  2 34  1  0
  3 35  1  0
  3 36  1  0
  4 37  1  6
  5 38  1  0
  5 39  1  0
  6 40  1  0
  6 41  1  0
  9 42  1  0
 11 43  1  0
 13 44  1  0
 14 45  1  0
 17 46  1  0
 19 47  1  0
 21 48  1  0
 22 49  1  0
 25 50  1  0
 26 51  1  0
 28 52  1  0
 29 53  1  0
 31 54  1  0
 31 55  1  0
 31 56  1  0
M  END
$$$$
