
     RDKit          3D

 40 42  0  0  0  0  0  0  0  0999 V2000
    7.2895    0.3007    1.1776 C   0  0  0  0  0  0  0  0  0  0  0  0
    5.8874    0.5030    1.0341 O   0  0  0  0  0  0  0  0  0  0  0  0
    5.0398   -0.3268    0.2850 C   0  0  0  0  0  0  0  0  0  0  0  0
    5.5110   -1.4575   -0.4075 C   0  0  0  0  0  0  0  0  0  0  0  0
    4.6265   -2.2498   -1.1420 C   0  0  0  0  0  0  0  0  0  0  0  0
    3.2691   -1.9262   -1.1945 C   0  0  0  0  0  0  0  0  0  0  0  0
    2.7785   -0.8011   -0.5086 C   0  0  0  0  0  0  0  0  0  0  0  0
    3.6771   -0.0083    0.2295 C   0  0  0  0  0  0  0  0  0  0  0  0
    1.3349   -0.4549   -0.5614 C   0  0  0  0  0  0  0  0  0  0  0  0
    0.6640   -0.0123    0.5916 C   0  0  0  0  0  0  0  0  0  0  0  0
   -0.6940    0.3133    0.5423 C   0  0  0  0  0  0  0  0  0  0  0  0
   -1.4072    0.2154   -0.6647 C   0  0  0  0  0  0  0  0  0  0  0  0
   -2.8113    0.5218   -0.7263 N   0  0  0  0  0  0  0  0  0  0  0  0
   -3.4458    1.5300    0.0758 C   0  0  0  0  0  0  0  0  0  0  0  0
   -2.7573    2.4460    0.6022 O   0  0  0  0  0  0  0  0  0  0  0  0
   -4.9157    1.5725    0.2014 C   0  0  0  0  0  0  0  0  0  0  0  0
   -5.7566    0.4558    0.3194 C   0  0  0  0  0  0  0  0  0  0  0  0
   -7.3473    1.0032    0.3428 S   0  0  0  0  0  0  0  0  0  0  0  0
   -7.0005    2.6406    0.2222 C   0  0  0  0  0  0  0  0  0  0  0  0
   -5.6223    2.7872    0.1618 C   0  0  0  0  0  0  0  0  0  0  0  0
   -5.3852   -0.9567    0.5139 C   0  0  0  0  0  0  0  0  0  0  0  0
   -6.3510   -1.9471    0.3637 O   0  0  0  0  0  0  0  0  0  0  0  0
   -4.2159   -1.2768    0.8554 O   0  0  0  0  0  0  0  0  0  0  0  0
   -0.7443   -0.2461   -1.8130 C   0  0  0  0  0  0  0  0  0  0  0  0
   -1.4109   -0.3623   -2.9893 F   0  0  0  0  0  0  0  0  0  0  0  0
    0.6146   -0.5715   -1.7631 C   0  0  0  0  0  0  0  0  0  0  0  0
    7.4863   -0.6802    1.6596 H   0  0  0  0  0  0  0  0  0  0  0  0
    7.7076    1.1024    1.8201 H   0  0  0  0  0  0  0  0  0  0  0  0
    7.7853    0.3455    0.1850 H   0  0  0  0  0  0  0  0  0  0  0  0
    6.5567   -1.7321   -0.3844 H   0  0  0  0  0  0  0  0  0  0  0  0
    4.9937   -3.1206   -1.6698 H   0  0  0  0  0  0  0  0  0  0  0  0
    2.6006   -2.5661   -1.7566 H   0  0  0  0  0  0  0  0  0  0  0  0
    3.3254    0.8728    0.7519 H   0  0  0  0  0  0  0  0  0  0  0  0
    1.1836    0.0580    1.5390 H   0  0  0  0  0  0  0  0  0  0  0  0
   -1.1909    0.6151    1.4548 H   0  0  0  0  0  0  0  0  0  0  0  0
   -3.3937    0.0378   -1.4468 H   0  0  0  0  0  0  0  0  0  0  0  0
   -7.7238    3.4442    0.1950 H   0  0  0  0  0  0  0  0  0  0  0  0
   -5.1434    3.7533    0.0662 H   0  0  0  0  0  0  0  0  0  0  0  0
   -6.1216   -2.9232    0.5079 H   0  0  0  0  0  0  0  0  0  0  0  0
    1.1073   -0.8990   -2.6701 H   0  0  0  0  0  0  0  0  0  0  0  0
  1  2  1  0
  2  3  1  0
  3  4  2  0
  4  5  1  0
  5  6  2  0
  6  7  1  0
  7  8  2  0
  7  9  1  0
  9 10  2  0
 10 11  1  0
 11 12  2  0
 12 13  1  0
 13 14  1  0
 14 15  2  0
 14 16  1  0
 16 17  2  0
 17 18  1  0
 18 19  1  0
 19 20  2  0
 17 21  1  0
 21 22  1  0
 21 23  2  0
 12 24  1  0
 24 25  1  0
 24 26  2  0
  8  3  1  0
 26  9  1  0
 20 16  1  0
  1 27  1  0
  1 28  1  0
  1 29  1  0
  4 30  1  0
  5 31  1  0
  6 32  1  0
  8 33  1  0
 10 34  1  0
 11 35  1  0
 13 36  1  0
 19 37  1  0
 20 38  1  0
 22 39  1  0
 26 40  1  0
M  END
$$$$
