
     RDKit          3D

 43 45  0  0  0  0  0  0  0  0999 V2000
   -4.3834   -2.7106    0.4384 C   0  0  0  0  0  0  0  0  0  0  0  0
   -4.3602   -1.3360   -0.1704 C   0  0  0  0  0  0  0  0  0  0  0  0
   -5.5598   -0.6301   -0.3437 C   0  0  0  0  0  0  0  0  0  0  0  0
   -5.5491    0.6627   -0.8718 C   0  0  0  0  0  0  0  0  0  0  0  0
   -4.3399    1.2540   -1.2465 C   0  0  0  0  0  0  0  0  0  0  0  0
   -3.1272    0.5635   -1.0903 C   0  0  0  0  0  0  0  0  0  0  0  0
   -1.8578    1.2171   -1.5665 C   0  0  0  0  0  0  0  0  0  0  0  0
   -3.1321   -0.7271   -0.5000 C   0  0  0  0  0  0  0  0  0  0  0  0
   -1.9481   -1.4426   -0.2523 O   0  0  0  0  0  0  0  0  0  0  0  0
   -0.7782   -0.9106    0.3064 C   0  0  0  0  0  0  0  0  0  0  0  0
   -0.7880   -0.0975    1.4607 C   0  0  0  0  0  0  0  0  0  0  0  0
   -2.4134    0.2352    2.4373 Br  0  0  0  0  0  0  0  0  0  0  0  0
    0.4445    0.3999    1.9275 C   0  0  0  0  0  0  0  0  0  0  0  0
    0.5284    1.2408    3.0822 N   0  0  0  0  0  0  0  0  0  0  0  0
    1.5902    0.0691    1.2778 N   0  0  0  0  0  0  0  0  0  0  0  0
    1.5826   -0.7286    0.1792 C   0  0  0  0  0  0  0  0  0  0  0  0
    2.8071   -1.0987   -0.4702 N   0  0  0  0  0  0  0  0  0  0  0  0
    4.0750   -0.4674   -0.2237 C   0  0  0  0  0  0  0  0  0  0  0  0
    5.2485   -1.2347   -0.2804 C   0  0  0  0  0  0  0  0  0  0  0  0
    6.4956   -0.6398   -0.0663 C   0  0  0  0  0  0  0  0  0  0  0  0
    6.5834    0.7335    0.1911 C   0  0  0  0  0  0  0  0  0  0  0  0
    5.4195    1.5108    0.2246 C   0  0  0  0  0  0  0  0  0  0  0  0
    4.1719    0.9164    0.0113 C   0  0  0  0  0  0  0  0  0  0  0  0
    7.8674    1.3464    0.4095 C   0  0  0  0  0  0  0  0  0  0  0  0
    8.8997    1.8392    0.5850 N   0  0  0  0  0  0  0  0  0  0  0  0
    0.4055   -1.2194   -0.2829 N   0  0  0  0  0  0  0  0  0  0  0  0
   -6.7851    1.3817   -1.0408 C   0  0  0  0  0  0  0  0  0  0  0  0
   -7.7785    1.9595   -1.1765 N   0  0  0  0  0  0  0  0  0  0  0  0
   -3.9836   -2.6643    1.4731 H   0  0  0  0  0  0  0  0  0  0  0  0
   -5.4139   -3.1238    0.4731 H   0  0  0  0  0  0  0  0  0  0  0  0
   -3.7580   -3.4037   -0.1631 H   0  0  0  0  0  0  0  0  0  0  0  0
   -6.5026   -1.0847   -0.0611 H   0  0  0  0  0  0  0  0  0  0  0  0
   -4.3445    2.2511   -1.6725 H   0  0  0  0  0  0  0  0  0  0  0  0
   -1.1922    0.4700   -2.0468 H   0  0  0  0  0  0  0  0  0  0  0  0
   -2.0709    1.9998   -2.3255 H   0  0  0  0  0  0  0  0  0  0  0  0
   -1.3358    1.6944   -0.7117 H   0  0  0  0  0  0  0  0  0  0  0  0
   -0.3143    1.5552    3.6098 H   0  0  0  0  0  0  0  0  0  0  0  0
    1.4608    1.5778    3.4101 H   0  0  0  0  0  0  0  0  0  0  0  0
    2.7856   -1.9307   -1.1026 H   0  0  0  0  0  0  0  0  0  0  0  0
    5.1941   -2.2975   -0.4805 H   0  0  0  0  0  0  0  0  0  0  0  0
    7.3903   -1.2498   -0.1035 H   0  0  0  0  0  0  0  0  0  0  0  0
    5.4771    2.5774    0.4066 H   0  0  0  0  0  0  0  0  0  0  0  0
    3.2895    1.5423    0.0051 H   0  0  0  0  0  0  0  0  0  0  0  0
  1  2  1  0
  2  3  2  0
  3  4  1  0
  4  5  2  0
  5  6  1  0
  6  7  1  0
  6  8  2  0
  8  9  1  0
  9 10  1  0
 10 11  2  0
 11 12  1  0
 11 13  1  0
 13 14  1  0
 13 15  2  0
 15 16  1  0
 16 17  1  0
 17 18  1  0
 18 19  2  0
 19 20  1  0
 20 21  2  0
 21 22  1  0
 22 23  2  0
 21 24  1  0
 24 25  3  0
 16 26  2  0
  4 27  1  0
 27 28  3  0
  8  2  1  0
 26 10  1  0
 23 18  1  0
  1 29  1  0
  1 30  1  0
  1 31  1  0
  3 32  1  0
  5 33  1  0
  7 34  1  0
  7 35  1  0
  7 36  1  0
 14 37  1  0
 14 38  1  0
 17 39  1  0
 19 40  1  0
 20 41  1  0
 22 42  1  0
 23 43  1  0
M  END
$$$$
