
     RDKit          3D

 16 16  0  0  0  0  0  0  0  0999 V2000
   -2.7563    0.1727   -0.4691 O   0  0  0  0  0  0  0  0  0  0  0  0
   -1.9469    0.2423    0.6725 C   0  0  0  0  0  0  0  0  0  0  0  0
   -0.4974    0.1128    0.2877 C   0  0  0  0  0  0  0  0  0  0  0  0
    0.1508   -1.1293    0.3930 C   0  0  0  0  0  0  0  0  0  0  0  0
    1.4885   -1.2616    0.0081 C   0  0  0  0  0  0  0  0  0  0  0  0
    2.1855   -0.1594   -0.4941 C   0  0  0  0  0  0  0  0  0  0  0  0
    3.4821   -0.2901   -0.8681 F   0  0  0  0  0  0  0  0  0  0  0  0
    1.5438    1.0763   -0.6167 C   0  0  0  0  0  0  0  0  0  0  0  0
    0.2054    1.2147   -0.2333 C   0  0  0  0  0  0  0  0  0  0  0  0
   -0.4043    2.4193   -0.3723 F   0  0  0  0  0  0  0  0  0  0  0  0
   -2.7831   -0.7824   -0.7393 H   0  0  0  0  0  0  0  0  0  0  0  0
   -2.1164    1.2192    1.1729 H   0  0  0  0  0  0  0  0  0  0  0  0
   -2.2387   -0.5469    1.4027 H   0  0  0  0  0  0  0  0  0  0  0  0
   -0.3787   -1.9946    0.7722 H   0  0  0  0  0  0  0  0  0  0  0  0
    1.9830   -2.2204    0.0967 H   0  0  0  0  0  0  0  0  0  0  0  0
    2.0829    1.9274   -1.0128 H   0  0  0  0  0  0  0  0  0  0  0  0
  1  2  1  0
  2  3  1  0
  3  4  2  0
  4  5  1  0
  5  6  2  0
  6  7  1  0
  6  8  1  0
  8  9  2  0
  9 10  1  0
  9  3  1  0
  1 11  1  0
  2 12  1  0
  2 13  1  0
  4 14  1  0
  5 15  1  0
  8 16  1  0
M  END
$$$$
