
     RDKit          3D

 48 51  0  0  0  0  0  0  0  0999 V2000
   -3.2102   -0.6824    1.4092 O   0  0  0  0  0  0  0  0  0  0  0  0
   -3.9091   -0.8106    0.1965 C   0  0  0  0  0  0  0  0  0  0  0  0
   -2.9453   -1.3426   -0.8916 C   0  0  0  0  0  0  0  0  0  0  0  0
   -1.7413   -0.4583   -1.1213 C   0  0  0  0  0  0  0  0  0  0  0  0
   -0.6642   -0.4782   -0.2196 C   0  0  0  0  0  0  0  0  0  0  0  0
    0.4541    0.3510   -0.4180 C   0  0  0  0  0  0  0  0  0  0  0  0
    0.4834    1.2022   -1.5361 C   0  0  0  0  0  0  0  0  0  0  0  0
   -0.5803    1.2175   -2.4406 C   0  0  0  0  0  0  0  0  0  0  0  0
   -1.6866    0.3907   -2.2381 C   0  0  0  0  0  0  0  0  0  0  0  0
    1.5788    0.3347    0.5487 C   0  0  0  0  0  0  0  0  0  0  0  0
    1.3435    0.2977    1.9442 C   0  0  0  0  0  0  0  0  0  0  0  0
    2.4178    0.2857    2.8613 C   0  0  0  0  0  0  0  0  0  0  0  0
    3.7469    0.3067    2.4073 C   0  0  0  0  0  0  0  0  0  0  0  0
    3.9574    0.3386    1.0324 C   0  0  0  0  0  0  0  0  0  0  0  0
    2.9157    0.3503    0.1263 C   0  0  0  0  0  0  0  0  0  0  0  0
    3.3723    0.3612   -1.1127 O   0  0  0  0  0  0  0  0  0  0  0  0
    4.6878    0.3627   -1.0331 C   0  0  0  0  0  0  0  0  0  0  0  0
    5.1061    0.3491    0.2800 C   0  0  0  0  0  0  0  0  0  0  0  0
    6.4550    0.3429    0.6283 C   0  0  0  0  0  0  0  0  0  0  0  0
    7.3968    0.3541   -0.4171 C   0  0  0  0  0  0  0  0  0  0  0  0
    6.9724    0.3696   -1.7657 C   0  0  0  0  0  0  0  0  0  0  0  0
    5.6011    0.3737   -2.0845 C   0  0  0  0  0  0  0  0  0  0  0  0
   -4.6174    0.8168   -0.2924 P   0  0  0  0  0  5  0  0  0  0  0  0
   -5.8529    1.2617    0.7776 O   0  0  0  0  0  0  0  0  0  0  0  0
   -3.4072    1.9983   -0.2319 O   0  0  0  0  0  0  0  0  0  0  0  0
   -5.1694    0.7389   -1.6991 O   0  0  0  0  0  0  0  0  0  0  0  0
   -5.2694   -2.0244    0.4099 P   0  0  0  0  0  5  0  0  0  0  0  0
   -6.1415   -2.1539   -1.0347 O   0  0  0  0  0  0  0  0  0  0  0  0
   -6.3157   -1.5300    1.6465 O   0  0  0  0  0  0  0  0  0  0  0  0
   -4.6906   -3.3770    0.7619 O   0  0  0  0  0  0  0  0  0  0  0  0
   -3.8328   -0.2956    2.0781 H   0  0  0  0  0  0  0  0  0  0  0  0
   -2.5802   -2.3511   -0.5975 H   0  0  0  0  0  0  0  0  0  0  0  0
   -3.4994   -1.4812   -1.8464 H   0  0  0  0  0  0  0  0  0  0  0  0
   -0.6920   -1.1522    0.6280 H   0  0  0  0  0  0  0  0  0  0  0  0
    1.3198    1.8696   -1.7009 H   0  0  0  0  0  0  0  0  0  0  0  0
   -0.5504    1.8779   -3.2976 H   0  0  0  0  0  0  0  0  0  0  0  0
   -2.5051    0.4206   -2.9464 H   0  0  0  0  0  0  0  0  0  0  0  0
    0.3309    0.2952    2.3276 H   0  0  0  0  0  0  0  0  0  0  0  0
    2.2154    0.2621    3.9242 H   0  0  0  0  0  0  0  0  0  0  0  0
    4.5748    0.2951    3.1042 H   0  0  0  0  0  0  0  0  0  0  0  0
    6.7700    0.3303    1.6636 H   0  0  0  0  0  0  0  0  0  0  0  0
    8.4542    0.3503   -0.1868 H   0  0  0  0  0  0  0  0  0  0  0  0
    7.7076    0.3778   -2.5598 H   0  0  0  0  0  0  0  0  0  0  0  0
    5.2670    0.3844   -3.1137 H   0  0  0  0  0  0  0  0  0  0  0  0
   -6.6823    0.8866    0.3871 H   0  0  0  0  0  0  0  0  0  0  0  0
   -3.8608    2.8390   -0.4927 H   0  0  0  0  0  0  0  0  0  0  0  0
   -6.9020   -2.7500   -0.8180 H   0  0  0  0  0  0  0  0  0  0  0  0
   -5.8227   -1.7059    2.4871 H   0  0  0  0  0  0  0  0  0  0  0  0
  1  2  1  0
  2  3  1  0
  3  4  1  0
  4  5  2  0
  5  6  1  0
  6  7  2  0
  7  8  1  0
  8  9  2  0
  6 10  1  0
 10 11  2  0
 11 12  1  0
 12 13  2  0
 13 14  1  0
 14 15  2  0
 15 16  1  0
 16 17  1  0
 17 18  2  0
 18 19  1  0
 19 20  2  0
 20 21  1  0
 21 22  2  0
  2 23  1  0
 23 24  1  0
 23 25  1  0
 23 26  2  0
  2 27  1  0
 27 28  1  0
 27 29  1  0
 27 30  2  0
  9  4  1  0
 15 10  1  0
 22 17  1  0
 18 14  1  0
  1 31  1  0
  3 32  1  0
  3 33  1  0
  5 34  1  0
  7 35  1  0
  8 36  1  0
  9 37  1  0
 11 38  1  0
 12 39  1  0
 13 40  1  0
 19 41  1  0
 20 42  1  0
 21 43  1  0
 22 44  1  0
 24 45  1  0
 25 46  1  0
 28 47  1  0
 29 48  1  0
M  END
$$$$
