
     RDKit          3D

 43 46  0  0  0  0  0  0  0  0999 V2000
    8.3273   -0.9001    1.2287 C   0  0  0  0  0  0  0  0  0  0  0  0
    7.6599   -0.1838    0.1947 O   0  0  0  0  0  0  0  0  0  0  0  0
    6.2660   -0.0767    0.0781 C   0  0  0  0  0  0  0  0  0  0  0  0
    5.7425    0.6595   -0.9889 C   0  0  0  0  0  0  0  0  0  0  0  0
    4.3608    0.7968   -1.1510 C   0  0  0  0  0  0  0  0  0  0  0  0
    3.4714    0.1944   -0.2419 C   0  0  0  0  0  0  0  0  0  0  0  0
    4.0012   -0.5435    0.8321 C   0  0  0  0  0  0  0  0  0  0  0  0
    5.3832   -0.6796    0.9918 C   0  0  0  0  0  0  0  0  0  0  0  0
    1.9996    0.3267   -0.3928 C   0  0  0  0  0  0  0  0  0  0  0  0
    1.1216   -0.1645    0.5251 N   0  0  0  0  0  0  0  0  0  0  0  0
   -0.0755    0.1617    0.0082 C   0  0  0  0  0  0  0  0  0  0  0  0
   -1.3330   -0.1030    0.5418 C   0  0  0  0  0  0  0  0  0  0  0  0
   -2.4776    0.3340   -0.1758 C   0  0  0  0  0  0  0  0  0  0  0  0
   -2.2906    1.0211   -1.4122 C   0  0  0  0  0  0  0  0  0  0  0  0
   -1.0003    1.2674   -1.9162 C   0  0  0  0  0  0  0  0  0  0  0  0
    0.0819    0.8192   -1.1691 C   0  0  0  0  0  0  0  0  0  0  0  0
    1.3867    0.9349   -1.4440 N   0  0  0  0  0  0  0  0  0  0  0  0
   -3.8399    0.0645    0.3748 C   0  0  0  0  0  0  0  0  0  0  0  0
   -3.9667   -0.8230    1.3236 N   0  0  0  0  0  0  0  0  0  0  0  0
   -5.2012   -1.1253    1.9241 N   0  0  0  0  0  0  0  0  0  0  0  0
   -6.3307   -0.2798    1.7114 C   0  0  0  0  0  0  0  0  0  0  0  0
   -7.4359   -0.5409    2.2560 O   0  0  0  0  0  0  0  0  0  0  0  0
   -6.1563    0.9558    0.8893 C   0  0  0  0  0  0  0  0  0  0  0  0
   -5.0853    0.7343   -0.1985 C   0  0  0  0  0  0  0  0  0  0  0  0
   -5.6491   -0.1046   -1.3554 C   0  0  0  0  0  0  0  0  0  0  0  0
    9.4231   -0.8190    1.0768 H   0  0  0  0  0  0  0  0  0  0  0  0
    8.0725   -0.4670    2.2190 H   0  0  0  0  0  0  0  0  0  0  0  0
    8.0421   -1.9728    1.1954 H   0  0  0  0  0  0  0  0  0  0  0  0
    6.4120    1.1305   -1.6977 H   0  0  0  0  0  0  0  0  0  0  0  0
    4.0026    1.3810   -1.9858 H   0  0  0  0  0  0  0  0  0  0  0  0
    3.3471   -1.0206    1.5512 H   0  0  0  0  0  0  0  0  0  0  0  0
    5.7539   -1.2556    1.8287 H   0  0  0  0  0  0  0  0  0  0  0  0
   -1.4152   -0.6249    1.4869 H   0  0  0  0  0  0  0  0  0  0  0  0
   -3.1290    1.3601   -2.0019 H   0  0  0  0  0  0  0  0  0  0  0  0
   -0.8563    1.7860   -2.8553 H   0  0  0  0  0  0  0  0  0  0  0  0
    1.8089    1.3851   -2.2851 H   0  0  0  0  0  0  0  0  0  0  0  0
   -5.2674   -1.9315    2.5842 H   0  0  0  0  0  0  0  0  0  0  0  0
   -7.1242    1.2556    0.4310 H   0  0  0  0  0  0  0  0  0  0  0  0
   -5.8292    1.7773    1.5626 H   0  0  0  0  0  0  0  0  0  0  0  0
   -4.8246    1.7407   -0.5896 H   0  0  0  0  0  0  0  0  0  0  0  0
   -6.5187    0.4124   -1.8142 H   0  0  0  0  0  0  0  0  0  0  0  0
   -5.9757   -1.1039   -0.9960 H   0  0  0  0  0  0  0  0  0  0  0  0
   -4.8820   -0.2512   -2.1439 H   0  0  0  0  0  0  0  0  0  0  0  0
  1  2  1  0
  2  3  1  0
  3  4  2  0
  4  5  1  0
  5  6  2  0
  6  7  1  0
  7  8  2  0
  6  9  1  0
  9 10  2  0
 10 11  1  0
 11 12  2  0
 12 13  1  0
 13 14  2  0
 14 15  1  0
 15 16  2  0
 16 17  1  0
 13 18  1  0
 18 19  2  0
 19 20  1  0
 20 21  1  0
 21 22  2  0
 21 23  1  0
 23 24  1  0
 24 25  1  0
  8  3  1  0
 17  9  1  0
 24 18  1  0
 16 11  1  0
  1 26  1  0
  1 27  1  0
  1 28  1  0
  4 29  1  0
  5 30  1  0
  7 31  1  0
  8 32  1  0
 12 33  1  0
 14 34  1  0
 15 35  1  0
 17 36  1  0
 20 37  1  0
 23 38  1  0
 23 39  1  0
 24 40  1  0
 25 41  1  0
 25 42  1  0
 25 43  1  0
M  END
$$$$
