
     RDKit          3D

 75 77  0  0  0  0  0  0  0  0999 V2000
   -2.2868   -0.6253   -4.8228 C   0  0  0  0  0  0  0  0  0  0  0  0
   -1.8081   -0.7955   -3.3741 C   0  0  0  0  0  0  0  0  0  0  0  0
   -2.0945   -2.2285   -2.9114 C   0  0  0  0  0  0  0  0  0  0  0  0
   -0.3013   -0.4059   -3.2770 C   0  0  0  0  0  0  0  0  0  0  0  0
    0.2679   -0.3118   -1.9107 N   0  0  0  0  0  0  0  0  0  0  0  0
   -0.5640    0.4410   -0.9523 C   0  0  0  0  0  0  0  0  0  0  0  0
    0.2983    1.1263    0.1399 C   0  0  1  0  0  0  0  0  0  0  0  0
    0.6829    2.4093   -0.3253 O   0  0  0  0  0  0  0  0  0  0  0  0
    2.3022    2.4041   -0.8740 P   0  0  0  0  0  5  0  0  0  0  0  0
    3.3220    1.7055    0.2833 O   0  0  0  0  0  0  0  0  0  0  0  0
    2.4262    1.5550   -2.3314 O   0  0  0  0  0  0  0  0  0  0  0  0
    2.7371    3.8335   -1.1040 O   0  0  0  0  0  0  0  0  0  0  0  0
   -0.5175    1.2895    1.4519 C   0  0  2  0  0  0  0  0  0  0  0  0
    0.2519    2.0745    2.5417 C   0  0  0  0  0  0  0  0  0  0  0  0
    0.2917    3.5644    2.2968 C   0  0  0  0  0  0  0  0  0  0  0  0
    1.5183    4.2202    2.0929 C   0  0  0  0  0  0  0  0  0  0  0  0
    1.5527    5.5997    1.8686 C   0  0  0  0  0  0  0  0  0  0  0  0
    0.3668    6.3382    1.8620 C   0  0  0  0  0  0  0  0  0  0  0  0
   -0.8552    5.6993    2.0868 C   0  0  0  0  0  0  0  0  0  0  0  0
   -0.8944    4.3195    2.3097 C   0  0  0  0  0  0  0  0  0  0  0  0
   -0.8413   -0.0363    1.9945 N   0  0  0  0  0  0  0  0  0  0  0  0
   -2.1676   -0.5762    2.0292 C   0  0  0  0  0  0  0  0  0  0  0  0
   -3.1574    0.1344    1.7012 O   0  0  0  0  0  0  0  0  0  0  0  0
   -2.3487   -1.9087    2.4115 O   0  0  0  0  0  0  0  0  0  0  0  0
   -3.6057   -2.5790    2.3241 C   0  0  1  0  0  0  0  0  0  0  0  0
   -3.9812   -2.8717    0.9012 C   0  0  0  0  0  0  0  0  0  0  0  0
   -4.7247   -4.1874    1.0118 C   0  0  0  0  0  0  0  0  0  0  0  0
   -4.3641   -4.8346    2.2121 O   0  0  0  0  0  0  0  0  0  0  0  0
   -3.5230   -3.9637    2.9329 C   0  0  0  0  0  0  0  0  0  0  0  0
    0.8617   -1.8401   -1.2747 S   0  0  0  0  0  6  0  0  0  0  0  0
    0.8644   -2.9124   -2.3287 O   0  0  0  0  0  0  0  0  0  0  0  0
    0.0134   -2.3071   -0.1233 O   0  0  0  0  0  0  0  0  0  0  0  0
    2.5222   -1.6234   -0.7309 C   0  0  0  0  0  0  0  0  0  0  0  0
    3.5235   -1.3375   -1.6676 C   0  0  0  0  0  0  0  0  0  0  0  0
    4.8441   -1.1466   -1.2511 C   0  0  0  0  0  0  0  0  0  0  0  0
    5.1760   -1.2425    0.1076 C   0  0  0  0  0  0  0  0  0  0  0  0
    6.5254   -1.0398    0.5350 N   0  0  0  0  0  0  0  0  0  0  0  0
    4.1749   -1.5336    1.0450 C   0  0  0  0  0  0  0  0  0  0  0  0
    2.8544   -1.7253    0.6281 C   0  0  0  0  0  0  0  0  0  0  0  0
   -2.1425    0.4248   -5.1557 H   0  0  0  0  0  0  0  0  0  0  0  0
   -1.7221   -1.2981   -5.5039 H   0  0  0  0  0  0  0  0  0  0  0  0
   -3.3698   -0.8605   -4.9034 H   0  0  0  0  0  0  0  0  0  0  0  0
   -2.4239   -0.1079   -2.7580 H   0  0  0  0  0  0  0  0  0  0  0  0
   -3.1663   -2.4752   -3.0689 H   0  0  0  0  0  0  0  0  0  0  0  0
   -1.8990   -2.3340   -1.8284 H   0  0  0  0  0  0  0  0  0  0  0  0
   -1.4800   -2.9576   -3.4802 H   0  0  0  0  0  0  0  0  0  0  0  0
    0.3100   -1.0894   -3.9043 H   0  0  0  0  0  0  0  0  0  0  0  0
   -0.1782    0.5944   -3.7462 H   0  0  0  0  0  0  0  0  0  0  0  0
   -1.3328   -0.2318   -0.5229 H   0  0  0  0  0  0  0  0  0  0  0  0
   -1.1230    1.2475   -1.4775 H   0  0  0  0  0  0  0  0  0  0  0  0
    1.1586    0.4748    0.3991 H   0  0  0  0  0  0  0  0  0  0  0  0
    4.2188    1.7068   -0.1366 H   0  0  0  0  0  0  0  0  0  0  0  0
    1.8246    2.0348   -2.9546 H   0  0  0  0  0  0  0  0  0  0  0  0
   -1.4546    1.8382    1.2137 H   0  0  0  0  0  0  0  0  0  0  0  0
   -0.2468    1.9136    3.5228 H   0  0  0  0  0  0  0  0  0  0  0  0
    1.2798    1.6603    2.6397 H   0  0  0  0  0  0  0  0  0  0  0  0
    2.4475    3.6650    2.1021 H   0  0  0  0  0  0  0  0  0  0  0  0
    2.4998    6.0965    1.7019 H   0  0  0  0  0  0  0  0  0  0  0  0
    0.3954    7.4062    1.6892 H   0  0  0  0  0  0  0  0  0  0  0  0
   -1.7724    6.2738    2.0913 H   0  0  0  0  0  0  0  0  0  0  0  0
   -1.8481    3.8412    2.4943 H   0  0  0  0  0  0  0  0  0  0  0  0
   -0.0561   -0.6533    2.3039 H   0  0  0  0  0  0  0  0  0  0  0  0
   -4.4051   -1.9911    2.8302 H   0  0  0  0  0  0  0  0  0  0  0  0
   -4.6192   -2.0703    0.4692 H   0  0  0  0  0  0  0  0  0  0  0  0
   -3.0695   -3.0070    0.2778 H   0  0  0  0  0  0  0  0  0  0  0  0
   -5.8206   -4.0013    1.0216 H   0  0  0  0  0  0  0  0  0  0  0  0
   -4.4855   -4.8422    0.1467 H   0  0  0  0  0  0  0  0  0  0  0  0
   -3.8363   -3.9367    3.9983 H   0  0  0  0  0  0  0  0  0  0  0  0
   -2.4817   -4.3516    2.8807 H   0  0  0  0  0  0  0  0  0  0  0  0
    3.2790   -1.2550   -2.7192 H   0  0  0  0  0  0  0  0  0  0  0  0
    5.6067   -0.9201   -1.9854 H   0  0  0  0  0  0  0  0  0  0  0  0
    6.7818   -1.1064    1.5452 H   0  0  0  0  0  0  0  0  0  0  0  0
    7.2774   -0.8195   -0.1556 H   0  0  0  0  0  0  0  0  0  0  0  0
    4.4172   -1.6082    2.0976 H   0  0  0  0  0  0  0  0  0  0  0  0
    2.0944   -1.9423    1.3670 H   0  0  0  0  0  0  0  0  0  0  0  0
  1  2  1  0
  2  3  1  0
  2  4  1  0
  4  5  1  0
  5  6  1  0
  6  7  1  0
  7  8  1  0
  8  9  1  0
  9 10  1  0
  9 11  1  0
  9 12  2  0
  7 13  1  0
 13 14  1  0
 14 15  1  0
 15 16  2  0
 16 17  1  0
 17 18  2  0
 18 19  1  0
 19 20  2  0
 13 21  1  0
 21 22  1  0
 22 23  2  0
 22 24  1  0
 24 25  1  0
 25 26  1  0
 26 27  1  0
 27 28  1  0
 28 29  1  0
  5 30  1  0
 30 31  2  0
 30 32  2  0
 30 33  1  0
 33 34  2  0
 34 35  1  0
 35 36  2  0
 36 37  1  0
 36 38  1  0
 38 39  2  0
 20 15  1  0
 29 25  1  0
 39 33  1  0
  1 40  1  0
  1 41  1  0
  1 42  1  0
  2 43  1  0
  3 44  1  0
  3 45  1  0
  3 46  1  0
  4 47  1  0
  4 48  1  0
  6 49  1  0
  6 50  1  0
  7 51  1  1
 10 52  1  0
 11 53  1  0
 13 54  1  6
 14 55  1  0
 14 56  1  0
 16 57  1  0
 17 58  1  0
 18 59  1  0
 19 60  1  0
 20 61  1  0
 21 62  1  0
 25 63  1  1
 26 64  1  0
 26 65  1  0
 27 66  1  0
 27 67  1  0
 29 68  1  0
 29 69  1  0
 34 70  1  0
 35 71  1  0
 37 72  1  0
 37 73  1  0
 38 74  1  0
 39 75  1  0
M  END
$$$$
