
     RDKit          3D

 48 49  0  0  0  0  0  0  0  0999 V2000
    4.3315    1.0058    1.8783 C   0  0  0  0  0  0  0  0  0  0  0  0
    3.3424    0.0135    1.7114 O   0  0  0  0  0  0  0  0  0  0  0  0
    3.6792   -0.8398    0.6309 C   0  0  2  0  0  0  0  0  0  0  0  0
    3.5301   -0.1500   -0.6084 O   0  0  0  0  0  0  0  0  0  0  0  0
    2.2529   -0.2781   -1.2296 C   0  0  2  0  0  0  0  0  0  0  0  0
    2.0094    0.9730   -2.0898 C   0  0  0  0  0  0  0  0  0  0  0  0
    1.9068    2.1229   -1.2926 O   0  0  0  0  0  0  0  0  0  0  0  0
    1.0861   -0.5181   -0.2354 C   0  0  1  0  0  0  0  0  0  0  0  0
   -0.1309   -0.6505   -0.9589 O   0  0  0  0  0  0  0  0  0  0  0  0
   -1.1119    0.2687   -0.5152 C   0  0  2  0  0  0  0  0  0  0  0  0
   -1.5109   -0.0790    0.8048 O   0  0  0  0  0  0  0  0  0  0  0  0
   -2.6775    0.5901    1.2850 C   0  0  2  0  0  0  0  0  0  0  0  0
   -3.7466   -0.4648    1.6127 C   0  0  0  0  0  0  0  0  0  0  0  0
   -3.2310   -1.3858    2.5343 O   0  0  0  0  0  0  0  0  0  0  0  0
   -3.2197    1.7205    0.3647 C   0  0  2  0  0  0  0  0  0  0  0  0
   -4.4211    2.2427    0.8748 O   0  0  0  0  0  0  0  0  0  0  0  0
   -3.3950    1.2381   -1.0924 C   0  0  2  0  0  0  0  0  0  0  0  0
   -4.6707    0.6738   -1.2647 O   0  0  0  0  0  0  0  0  0  0  0  0
   -2.3053    0.2135   -1.4898 C   0  0  1  0  0  0  0  0  0  0  0  0
   -1.8734    0.4848   -2.7997 O   0  0  0  0  0  0  0  0  0  0  0  0
    1.3296   -1.8184    0.5639 C   0  0  2  0  0  0  0  0  0  0  0  0
    0.7302   -1.6934    1.8291 O   0  0  0  0  0  0  0  0  0  0  0  0
    2.8370   -2.1308    0.7200 C   0  0  1  0  0  0  0  0  0  0  0  0
    3.2357   -3.0277   -0.2868 O   0  0  0  0  0  0  0  0  0  0  0  0
    5.3052    0.5549    2.1710 H   0  0  0  0  0  0  0  0  0  0  0  0
    4.0165    1.6825    2.6988 H   0  0  0  0  0  0  0  0  0  0  0  0
    4.4489    1.6247    0.9617 H   0  0  0  0  0  0  0  0  0  0  0  0
    4.7439   -1.1623    0.7139 H   0  0  0  0  0  0  0  0  0  0  0  0
    2.2961   -1.1420   -1.9302 H   0  0  0  0  0  0  0  0  0  0  0  0
    1.0719    0.8576   -2.6735 H   0  0  0  0  0  0  0  0  0  0  0  0
    2.8363    1.0878   -2.8277 H   0  0  0  0  0  0  0  0  0  0  0  0
    2.8319    2.3826   -1.0441 H   0  0  0  0  0  0  0  0  0  0  0  0
    1.0866    0.3396    0.4824 H   0  0  0  0  0  0  0  0  0  0  0  0
   -0.6922    1.3028   -0.5327 H   0  0  0  0  0  0  0  0  0  0  0  0
   -2.4014    1.0737    2.2479 H   0  0  0  0  0  0  0  0  0  0  0  0
   -4.6447    0.0235    2.0519 H   0  0  0  0  0  0  0  0  0  0  0  0
   -4.0475   -1.0007    0.6863 H   0  0  0  0  0  0  0  0  0  0  0  0
   -3.9533   -2.0463    2.6984 H   0  0  0  0  0  0  0  0  0  0  0  0
   -2.4563    2.5346    0.3728 H   0  0  0  0  0  0  0  0  0  0  0  0
   -4.5897    3.0954    0.3946 H   0  0  0  0  0  0  0  0  0  0  0  0
   -3.3112    2.1430   -1.7405 H   0  0  0  0  0  0  0  0  0  0  0  0
   -4.8291    0.6195   -2.2434 H   0  0  0  0  0  0  0  0  0  0  0  0
   -2.7390   -0.8145   -1.4412 H   0  0  0  0  0  0  0  0  0  0  0  0
   -1.5076   -0.3615   -3.1682 H   0  0  0  0  0  0  0  0  0  0  0  0
    0.8481   -2.6651    0.0168 H   0  0  0  0  0  0  0  0  0  0  0  0
    0.5997   -2.6131    2.1799 H   0  0  0  0  0  0  0  0  0  0  0  0
    3.0101   -2.6055    1.7152 H   0  0  0  0  0  0  0  0  0  0  0  0
    4.0998   -3.4224    0.0023 H   0  0  0  0  0  0  0  0  0  0  0  0
  1  2  1  0
  2  3  1  0
  3  4  1  0
  4  5  1  0
  5  6  1  0
  6  7  1  0
  5  8  1  0
  8  9  1  0
  9 10  1  0
 10 11  1  0
 11 12  1  0
 12 13  1  0
 13 14  1  0
 12 15  1  0
 15 16  1  0
 15 17  1  0
 17 18  1  0
 17 19  1  0
 19 20  1  0
  8 21  1  0
 21 22  1  0
 21 23  1  0
 23 24  1  0
 23  3  1  0
 19 10  1  0
  1 25  1  0
  1 26  1  0
  1 27  1  0
  3 28  1  1
  5 29  1  6
  6 30  1  0
  6 31  1  0
  7 32  1  0
  8 33  1  1
 10 34  1  1
 12 35  1  1
 13 36  1  0
 13 37  1  0
 14 38  1  0
 15 39  1  6
 16 40  1  0
 17 41  1  6
 18 42  1  0
 19 43  1  6
 20 44  1  0
 21 45  1  6
 22 46  1  0
 23 47  1  1
 24 48  1  0
M  END
$$$$
