
     RDKit          3D

 50 52  0  0  0  0  0  0  0  0999 V2000
   -2.5009   -0.5571   -2.2986 O   0  0  0  0  0  0  0  0  0  0  0  0
   -1.9091   -0.4976   -1.0160 C   0  0  0  0  0  0  0  0  0  0  0  0
   -0.3852   -0.8479   -1.1289 C   0  0  0  0  0  0  0  0  0  0  0  0
    0.3915   -0.8099    0.2056 C   0  0  0  0  0  0  0  0  0  0  0  0
    1.9086   -0.8359   -0.0172 C   0  0  0  0  0  0  0  0  0  0  0  0
    2.3573    0.4001   -0.6997 N   0  0  0  0  0  0  0  0  0  0  0  0
    3.4620    0.1686   -1.6537 C   0  0  0  0  0  0  0  0  0  0  0  0
    4.7953   -0.0875   -0.9396 C   0  0  0  0  0  0  0  0  0  0  0  0
    5.1368    1.0863   -0.0229 C   0  0  0  0  0  0  0  0  0  0  0  0
    3.9975    1.3488    0.9624 C   0  0  0  0  0  0  0  0  0  0  0  0
    2.6536    1.5157    0.2292 C   0  0  0  0  0  0  0  0  0  0  0  0
   -2.5757   -1.5368   -0.0948 C   0  0  0  0  0  0  0  0  0  0  0  0
   -2.5852   -1.3621    1.3082 C   0  0  0  0  0  0  0  0  0  0  0  0
   -3.1510   -2.3259    2.1466 C   0  0  0  0  0  0  0  0  0  0  0  0
   -3.7009   -3.4881    1.6066 C   0  0  0  0  0  0  0  0  0  0  0  0
   -3.6787   -3.6929    0.2270 C   0  0  0  0  0  0  0  0  0  0  0  0
   -3.1142   -2.7329   -0.6183 C   0  0  0  0  0  0  0  0  0  0  0  0
   -2.1820    0.9376   -0.5259 C   0  0  0  0  0  0  0  0  0  0  0  0
   -3.4956    1.2931   -0.1434 C   0  0  0  0  0  0  0  0  0  0  0  0
   -3.8031    2.5976    0.2514 C   0  0  0  0  0  0  0  0  0  0  0  0
   -2.8176    3.5834    0.2382 C   0  0  0  0  0  0  0  0  0  0  0  0
   -1.5276    3.2706   -0.1883 C   0  0  0  0  0  0  0  0  0  0  0  0
   -1.2135    1.9680   -0.5866 C   0  0  0  0  0  0  0  0  0  0  0  0
   -2.0824   -1.2824   -2.8317 H   0  0  0  0  0  0  0  0  0  0  0  0
   -0.2805   -1.8771   -1.5397 H   0  0  0  0  0  0  0  0  0  0  0  0
    0.0882   -0.1842   -1.8830 H   0  0  0  0  0  0  0  0  0  0  0  0
    0.1203    0.0801    0.8066 H   0  0  0  0  0  0  0  0  0  0  0  0
    0.1198   -1.7046    0.8060 H   0  0  0  0  0  0  0  0  0  0  0  0
    2.1478   -1.7419   -0.6182 H   0  0  0  0  0  0  0  0  0  0  0  0
    2.4146   -0.9680    0.9620 H   0  0  0  0  0  0  0  0  0  0  0  0
    3.5649    1.0590   -2.3124 H   0  0  0  0  0  0  0  0  0  0  0  0
    3.2253   -0.6860   -2.3246 H   0  0  0  0  0  0  0  0  0  0  0  0
    5.6004   -0.2093   -1.6958 H   0  0  0  0  0  0  0  0  0  0  0  0
    4.7361   -1.0262   -0.3470 H   0  0  0  0  0  0  0  0  0  0  0  0
    6.0679    0.8588    0.5395 H   0  0  0  0  0  0  0  0  0  0  0  0
    5.3180    1.9976   -0.6345 H   0  0  0  0  0  0  0  0  0  0  0  0
    4.2174    2.2771    1.5324 H   0  0  0  0  0  0  0  0  0  0  0  0
    3.9403    0.5186    1.6972 H   0  0  0  0  0  0  0  0  0  0  0  0
    1.8417    1.6264    0.9790 H   0  0  0  0  0  0  0  0  0  0  0  0
    2.6750    2.4654   -0.3490 H   0  0  0  0  0  0  0  0  0  0  0  0
   -2.1510   -0.4792    1.7589 H   0  0  0  0  0  0  0  0  0  0  0  0
   -3.1571   -2.1733    3.2182 H   0  0  0  0  0  0  0  0  0  0  0  0
   -4.1367   -4.2345    2.2580 H   0  0  0  0  0  0  0  0  0  0  0  0
   -4.0945   -4.6013   -0.1895 H   0  0  0  0  0  0  0  0  0  0  0  0
   -3.1009   -2.9376   -1.6793 H   0  0  0  0  0  0  0  0  0  0  0  0
   -4.2890    0.5564   -0.1505 H   0  0  0  0  0  0  0  0  0  0  0  0
   -4.8108    2.8459    0.5587 H   0  0  0  0  0  0  0  0  0  0  0  0
   -3.0579    4.5942    0.5418 H   0  0  0  0  0  0  0  0  0  0  0  0
   -0.7694    4.0426   -0.2216 H   0  0  0  0  0  0  0  0  0  0  0  0
   -0.2097    1.7885   -0.9377 H   0  0  0  0  0  0  0  0  0  0  0  0
  1  2  1  0
  2  3  1  0
  3  4  1  0
  4  5  1  0
  5  6  1  0
  6  7  1  0
  7  8  1  0
  8  9  1  0
  9 10  1  0
 10 11  1  0
  2 12  1  0
 12 13  2  0
 13 14  1  0
 14 15  2  0
 15 16  1  0
 16 17  2  0
  2 18  1  0
 18 19  2  0
 19 20  1  0
 20 21  2  0
 21 22  1  0
 22 23  2  0
 11  6  1  0
 17 12  1  0
 23 18  1  0
  1 24  1  0
  3 25  1  0
  3 26  1  0
  4 27  1  0
  4 28  1  0
  5 29  1  0
  5 30  1  0
  7 31  1  0
  7 32  1  0
  8 33  1  0
  8 34  1  0
  9 35  1  0
  9 36  1  0
 10 37  1  0
 10 38  1  0
 11 39  1  0
 11 40  1  0
 13 41  1  0
 14 42  1  0
 15 43  1  0
 16 44  1  0
 17 45  1  0
 19 46  1  0
 20 47  1  0
 21 48  1  0
 22 49  1  0
 23 50  1  0
M  END
$$$$
