
     RDKit          3D

 57 59  0  0  0  0  0  0  0  0999 V2000
   -4.3490    2.3053   -2.0019 C   0  0  0  0  0  0  0  0  0  0  0  0
   -3.6376    1.6378   -0.8621 C   0  0  0  0  0  0  0  0  0  0  0  0
   -3.3046    0.2774   -0.9392 C   0  0  0  0  0  0  0  0  0  0  0  0
   -2.5862   -0.3429    0.0968 C   0  0  0  0  0  0  0  0  0  0  0  0
   -2.2210    0.4123    1.2241 C   0  0  0  0  0  0  0  0  0  0  0  0
   -2.5423    1.7746    1.3063 C   0  0  0  0  0  0  0  0  0  0  0  0
   -2.0801    2.5886    2.4787 C   0  0  0  0  0  0  0  0  0  0  0  0
   -3.2302    2.3879    0.2501 C   0  0  0  0  0  0  0  0  0  0  0  0
   -2.2084   -1.7723   -0.0075 C   0  0  0  0  0  0  0  0  0  0  0  0
   -2.8837   -2.5362   -0.7494 O   0  0  0  0  0  0  0  0  0  0  0  0
   -1.0492   -2.2828    0.6910 N   0  0  0  0  0  0  0  0  0  0  0  0
    0.1292   -1.5036    0.6774 N   0  0  0  0  0  0  0  0  0  0  0  0
    0.6070   -0.8707   -0.5196 C   0  0  0  0  0  0  0  0  0  0  0  0
    0.1862   -1.2628   -1.6415 O   0  0  0  0  0  0  0  0  0  0  0  0
    1.5703    0.2549   -0.4402 C   0  0  0  0  0  0  0  0  0  0  0  0
    2.6098    0.4363   -1.3937 C   0  0  0  0  0  0  0  0  0  0  0  0
    2.8429   -0.5607   -2.5030 C   0  0  0  0  0  0  0  0  0  0  0  0
    3.4399    1.5727   -1.2951 C   0  0  0  0  0  0  0  0  0  0  0  0
    3.2466    2.5065   -0.2678 C   0  0  0  0  0  0  0  0  0  0  0  0
    4.0559    3.6463   -0.2167 O   0  0  0  0  0  0  0  0  0  0  0  0
    4.8779    4.0207   -1.3237 C   0  0  0  0  0  0  0  0  0  0  0  0
    5.4894    2.7738   -1.9700 C   0  0  0  0  0  0  0  0  0  0  0  0
    4.4733    1.7990   -2.2144 O   0  0  0  0  0  0  0  0  0  0  0  0
    2.2588    2.3009    0.6912 C   0  0  0  0  0  0  0  0  0  0  0  0
    1.4256    1.1863    0.6052 C   0  0  0  0  0  0  0  0  0  0  0  0
   -1.0309   -3.6535    1.2707 C   0  0  0  0  0  0  0  0  0  0  0  0
   -2.3834   -3.9806    1.9455 C   0  0  0  0  0  0  0  0  0  0  0  0
    0.0683   -3.7853    2.3505 C   0  0  0  0  0  0  0  0  0  0  0  0
   -0.7421   -4.6757    0.1558 C   0  0  0  0  0  0  0  0  0  0  0  0
   -4.9612    3.1575   -1.6372 H   0  0  0  0  0  0  0  0  0  0  0  0
   -5.0281    1.5898   -2.5128 H   0  0  0  0  0  0  0  0  0  0  0  0
   -3.6031    2.6816   -2.7327 H   0  0  0  0  0  0  0  0  0  0  0  0
   -3.5861   -0.2904   -1.8183 H   0  0  0  0  0  0  0  0  0  0  0  0
   -1.6848   -0.0558    2.0406 H   0  0  0  0  0  0  0  0  0  0  0  0
   -1.0752    3.0081    2.2626 H   0  0  0  0  0  0  0  0  0  0  0  0
   -2.0213    1.9616    3.3938 H   0  0  0  0  0  0  0  0  0  0  0  0
   -2.7859    3.4226    2.6792 H   0  0  0  0  0  0  0  0  0  0  0  0
   -3.4512    3.4480    0.2951 H   0  0  0  0  0  0  0  0  0  0  0  0
    0.6607   -1.3546    1.5636 H   0  0  0  0  0  0  0  0  0  0  0  0
    2.1047   -0.3937   -3.3149 H   0  0  0  0  0  0  0  0  0  0  0  0
    2.7470   -1.5979   -2.1186 H   0  0  0  0  0  0  0  0  0  0  0  0
    3.8629   -0.4737   -2.9314 H   0  0  0  0  0  0  0  0  0  0  0  0
    5.6794    4.7062   -0.9769 H   0  0  0  0  0  0  0  0  0  0  0  0
    4.2539    4.5523   -2.0739 H   0  0  0  0  0  0  0  0  0  0  0  0
    5.9860    3.0409   -2.9263 H   0  0  0  0  0  0  0  0  0  0  0  0
    6.2481    2.3408   -1.2833 H   0  0  0  0  0  0  0  0  0  0  0  0
    2.1186    3.0188    1.4893 H   0  0  0  0  0  0  0  0  0  0  0  0
    0.6430    1.0705    1.3437 H   0  0  0  0  0  0  0  0  0  0  0  0
   -2.6443   -3.1908    2.6825 H   0  0  0  0  0  0  0  0  0  0  0  0
   -3.2057   -4.0569    1.2054 H   0  0  0  0  0  0  0  0  0  0  0  0
   -2.3346   -4.9556    2.4772 H   0  0  0  0  0  0  0  0  0  0  0  0
    0.0437   -4.7925    2.8206 H   0  0  0  0  0  0  0  0  0  0  0  0
   -0.0803   -3.0278    3.1502 H   0  0  0  0  0  0  0  0  0  0  0  0
    1.0798   -3.6528    1.9098 H   0  0  0  0  0  0  0  0  0  0  0  0
   -1.5483   -4.6792   -0.6059 H   0  0  0  0  0  0  0  0  0  0  0  0
    0.2144   -4.4285   -0.3532 H   0  0  0  0  0  0  0  0  0  0  0  0
   -0.6644   -5.7026    0.5744 H   0  0  0  0  0  0  0  0  0  0  0  0
  1  2  1  0
  2  3  2  0
  3  4  1  0
  4  5  2  0
  5  6  1  0
  6  7  1  0
  6  8  2  0
  4  9  1  0
  9 10  2  0
  9 11  1  0
 11 12  1  0
 12 13  1  0
 13 14  2  0
 13 15  1  0
 15 16  2  0
 16 17  1  0
 16 18  1  0
 18 19  2  0
 19 20  1  0
 20 21  1  0
 21 22  1  0
 22 23  1  0
 19 24  1  0
 24 25  2  0
 11 26  1  0
 26 27  1  0
 26 28  1  0
 26 29  1  0
  8  2  1  0
 25 15  1  0
 23 18  1  0
  1 30  1  0
  1 31  1  0
  1 32  1  0
  3 33  1  0
  5 34  1  0
  7 35  1  0
  7 36  1  0
  7 37  1  0
  8 38  1  0
 12 39  1  0
 17 40  1  0
 17 41  1  0
 17 42  1  0
 21 43  1  0
 21 44  1  0
 22 45  1  0
 22 46  1  0
 24 47  1  0
 25 48  1  0
 27 49  1  0
 27 50  1  0
 27 51  1  0
 28 52  1  0
 28 53  1  0
 28 54  1  0
 29 55  1  0
 29 56  1  0
 29 57  1  0
M  END
$$$$
