
     RDKit          3D

 52 55  0  0  0  0  0  0  0  0999 V2000
   -4.9448    0.4325   -0.3191 C   0  0  1  0  0  0  0  0  0  0  0  0
   -5.2005   -0.3486   -1.6159 C   0  0  0  0  0  0  0  0  0  0  0  0
   -6.2789    0.7631    0.4057 C   0  0  0  0  0  0  0  0  0  0  0  0
   -6.5804   -0.2247    1.5379 C   0  0  0  0  0  0  0  0  0  0  0  0
   -5.4733   -0.2135    2.6108 C   0  0  0  0  0  0  0  0  0  0  0  0
   -4.0775    0.1203    2.0472 C   0  0  0  0  0  0  0  0  0  0  0  0
   -3.9376   -0.3331    0.5835 C   0  0  2  0  0  0  0  0  0  0  0  0
   -2.6104   -0.0825    0.1123 O   0  0  0  0  0  0  0  0  0  0  0  0
   -1.4607   -0.8212    0.4437 C   0  0  0  0  0  0  0  0  0  0  0  0
   -0.2242   -0.3727   -0.0498 C   0  0  0  0  0  0  0  0  0  0  0  0
   -0.2189    0.7474   -0.8852 O   0  0  0  0  0  0  0  0  0  0  0  0
    0.9655   -1.0702    0.2741 C   0  0  0  0  0  0  0  0  0  0  0  0
    0.8847   -2.2440    1.0387 C   0  0  0  0  0  0  0  0  0  0  0  0
   -0.3455   -2.6990    1.5102 C   0  0  0  0  0  0  0  0  0  0  0  0
   -1.5122   -1.9908    1.2258 C   0  0  0  0  0  0  0  0  0  0  0  0
    2.3009   -0.5895   -0.1390 C   0  0  0  0  0  0  0  0  0  0  0  0
    2.7713    0.7161    0.0034 C   0  0  0  0  0  0  0  0  0  0  0  0
    4.0755    0.6750   -0.4384 C   0  0  0  0  0  0  0  0  0  0  0  0
    5.0344    1.6806   -0.5201 C   0  0  0  0  0  0  0  0  0  0  0  0
    6.3199    1.3416   -1.0047 C   0  0  0  0  0  0  0  0  0  0  0  0
    7.3725    2.3818   -1.0991 C   0  0  0  0  0  0  0  0  0  0  0  0
    8.7115    2.0912   -0.6919 N   0  0  0  0  0  0  0  0  0  0  0  0
    7.0929    3.5693   -1.5387 N   0  0  0  0  0  0  0  0  0  0  0  0
    6.5909   -0.0009   -1.3914 C   0  0  0  0  0  0  0  0  0  0  0  0
    7.8018   -0.3444   -1.8988 F   0  0  0  0  0  0  0  0  0  0  0  0
    5.5954   -0.9903   -1.2898 C   0  0  0  0  0  0  0  0  0  0  0  0
    4.3454   -0.6144   -0.8070 C   0  0  0  0  0  0  0  0  0  0  0  0
    3.2724   -1.4010   -0.6227 N   0  0  0  0  0  0  0  0  0  0  0  0
   -4.4828    1.4032   -0.6101 H   0  0  0  0  0  0  0  0  0  0  0  0
   -5.8306    0.2512   -2.3068 H   0  0  0  0  0  0  0  0  0  0  0  0
   -5.7185   -1.3073   -1.3990 H   0  0  0  0  0  0  0  0  0  0  0  0
   -4.2393   -0.5668   -2.1287 H   0  0  0  0  0  0  0  0  0  0  0  0
   -6.2131    1.7845    0.8423 H   0  0  0  0  0  0  0  0  0  0  0  0
   -7.1317    0.7776   -0.3078 H   0  0  0  0  0  0  0  0  0  0  0  0
   -6.6746   -1.2470    1.1100 H   0  0  0  0  0  0  0  0  0  0  0  0
   -7.5542    0.0325    2.0078 H   0  0  0  0  0  0  0  0  0  0  0  0
   -5.4441   -1.2116    3.0999 H   0  0  0  0  0  0  0  0  0  0  0  0
   -5.7274    0.5320    3.3956 H   0  0  0  0  0  0  0  0  0  0  0  0
   -3.9092    1.2187    2.1025 H   0  0  0  0  0  0  0  0  0  0  0  0
   -3.3052   -0.3614    2.6828 H   0  0  0  0  0  0  0  0  0  0  0  0
   -4.1586   -1.4219    0.5198 H   0  0  0  0  0  0  0  0  0  0  0  0
    0.5950    1.0479   -1.4044 H   0  0  0  0  0  0  0  0  0  0  0  0
    1.7807   -2.7962    1.2954 H   0  0  0  0  0  0  0  0  0  0  0  0
   -0.3936   -3.5997    2.1087 H   0  0  0  0  0  0  0  0  0  0  0  0
   -2.4457   -2.3707    1.6141 H   0  0  0  0  0  0  0  0  0  0  0  0
    2.2399    1.5718    0.3996 H   0  0  0  0  0  0  0  0  0  0  0  0
    4.7960    2.6877   -0.2011 H   0  0  0  0  0  0  0  0  0  0  0  0
    9.4623    2.8097   -0.7957 H   0  0  0  0  0  0  0  0  0  0  0  0
    8.9493    1.1865   -0.2284 H   0  0  0  0  0  0  0  0  0  0  0  0
    6.1360    3.8401   -1.8584 H   0  0  0  0  0  0  0  0  0  0  0  0
    5.7944   -2.0129   -1.5840 H   0  0  0  0  0  0  0  0  0  0  0  0
    3.2048   -2.4260   -0.8124 H   0  0  0  0  0  0  0  0  0  0  0  0
  1  2  1  0
  1  3  1  0
  3  4  1  0
  4  5  1  0
  5  6  1  0
  6  7  1  0
  7  8  1  0
  8  9  1  0
  9 10  2  0
 10 11  1  0
 10 12  1  0
 12 13  2  0
 13 14  1  0
 14 15  2  0
 12 16  1  0
 16 17  2  0
 17 18  1  0
 18 19  2  0
 19 20  1  0
 20 21  1  0
 21 22  1  0
 21 23  2  3
 20 24  2  0
 24 25  1  0
 24 26  1  0
 26 27  2  0
 27 28  1  0
  7  1  1  0
 15  9  1  0
 28 16  1  0
 27 18  1  0
  1 29  1  6
  2 30  1  0
  2 31  1  0
  2 32  1  0
  3 33  1  0
  3 34  1  0
  4 35  1  0
  4 36  1  0
  5 37  1  0
  5 38  1  0
  6 39  1  0
  6 40  1  0
  7 41  1  1
 11 42  1  0
 13 43  1  0
 14 44  1  0
 15 45  1  0
 17 46  1  0
 19 47  1  0
 22 48  1  0
 22 49  1  0
 23 50  1  0
 26 51  1  0
 28 52  1  0
M  END
$$$$
