
     RDKit          3D

 60 62  0  0  0  0  0  0  0  0999 V2000
   -7.5209    0.3426    0.3244 O   0  0  0  0  0  0  0  0  0  0  0  0
   -7.0730    1.4502   -0.4097 C   0  0  0  0  0  0  0  0  0  0  0  0
   -5.6811    1.1866   -0.9910 C   0  0  0  0  0  0  0  0  0  0  0  0
   -4.7264    0.8449    0.0741 N   0  0  0  0  0  0  0  0  0  0  0  0
   -4.0775    2.0458    0.6191 C   0  0  0  0  0  0  0  0  0  0  0  0
   -3.2951    1.7012    1.8908 C   0  0  0  0  0  0  0  0  0  0  0  0
   -2.2150    0.7487    1.6194 N   0  0  0  0  0  0  0  0  0  0  0  0
   -1.1136    1.0058    0.7230 C   0  0  0  0  0  0  0  0  0  0  0  0
   -0.6242    2.3122    0.5739 C   0  0  0  0  0  0  0  0  0  0  0  0
    0.5074    2.5664   -0.1923 C   0  0  0  0  0  0  0  0  0  0  0  0
    1.1832    1.5285   -0.8422 C   0  0  0  0  0  0  0  0  0  0  0  0
    2.4044    1.8267   -1.5379 N   0  0  0  0  0  0  0  0  0  0  0  0
    3.4771    2.5973   -0.9081 C   0  0  0  0  0  0  0  0  0  0  0  0
    4.8384    1.8963   -1.0669 C   0  0  0  0  0  0  0  0  0  0  0  0
    4.8408    0.4895   -0.6305 N   0  0  0  0  0  0  0  0  0  0  0  0
    4.4956    0.3299    0.7875 C   0  0  0  0  0  0  0  0  0  0  0  0
    4.7766   -1.1059    1.2294 C   0  0  0  0  0  0  0  0  0  0  0  0
    4.4289   -1.2772    2.5762 O   0  0  0  0  0  0  0  0  0  0  0  0
    0.6850    0.2051   -0.7485 C   0  0  0  0  0  0  0  0  0  0  0  0
   -0.4600   -0.0564    0.0455 C   0  0  0  0  0  0  0  0  0  0  0  0
   -0.9504   -1.4574    0.1239 C   0  0  0  0  0  0  0  0  0  0  0  0
   -2.1816   -1.6932    0.2532 O   0  0  0  0  0  0  0  0  0  0  0  0
    0.0013   -2.5716   -0.1019 C   0  0  0  0  0  0  0  0  0  0  0  0
    1.1309   -2.3198   -0.9121 C   0  0  0  0  0  0  0  0  0  0  0  0
    2.0188   -3.3715   -1.2241 C   0  0  0  0  0  0  0  0  0  0  0  0
    3.1507   -3.1385   -2.0058 O   0  0  0  0  0  0  0  0  0  0  0  0
    1.7710   -4.6588   -0.7373 C   0  0  0  0  0  0  0  0  0  0  0  0
    0.6708   -4.9035    0.0809 C   0  0  0  0  0  0  0  0  0  0  0  0
   -0.2030   -3.8704    0.4282 C   0  0  0  0  0  0  0  0  0  0  0  0
   -1.2327   -4.1668    1.3241 O   0  0  0  0  0  0  0  0  0  0  0  0
    1.3521   -0.9437   -1.4224 C   0  0  0  0  0  0  0  0  0  0  0  0
    2.0542   -0.7640   -2.4527 O   0  0  0  0  0  0  0  0  0  0  0  0
   -7.7904   -0.3467   -0.3375 H   0  0  0  0  0  0  0  0  0  0  0  0
   -7.0449    2.3350    0.2591 H   0  0  0  0  0  0  0  0  0  0  0  0
   -7.7851    1.6799   -1.2345 H   0  0  0  0  0  0  0  0  0  0  0  0
   -5.3422    2.0693   -1.5797 H   0  0  0  0  0  0  0  0  0  0  0  0
   -5.7602    0.3343   -1.7027 H   0  0  0  0  0  0  0  0  0  0  0  0
   -3.9788    0.2518   -0.3563 H   0  0  0  0  0  0  0  0  0  0  0  0
   -3.3977    2.4966   -0.1378 H   0  0  0  0  0  0  0  0  0  0  0  0
   -4.8394    2.8082    0.8903 H   0  0  0  0  0  0  0  0  0  0  0  0
   -2.8841    2.6252    2.3474 H   0  0  0  0  0  0  0  0  0  0  0  0
   -3.9957    1.2594    2.6328 H   0  0  0  0  0  0  0  0  0  0  0  0
   -2.2442   -0.1563    2.1397 H   0  0  0  0  0  0  0  0  0  0  0  0
   -1.0902    3.1435    1.0831 H   0  0  0  0  0  0  0  0  0  0  0  0
    0.8735    3.5830   -0.2662 H   0  0  0  0  0  0  0  0  0  0  0  0
    2.4845    1.6049   -2.5549 H   0  0  0  0  0  0  0  0  0  0  0  0
    3.2683    2.7583    0.1717 H   0  0  0  0  0  0  0  0  0  0  0  0
    3.5280    3.5990   -1.3856 H   0  0  0  0  0  0  0  0  0  0  0  0
    5.6105    2.4635   -0.5027 H   0  0  0  0  0  0  0  0  0  0  0  0
    5.1326    1.9330   -2.1382 H   0  0  0  0  0  0  0  0  0  0  0  0
    4.1683   -0.0571   -1.2136 H   0  0  0  0  0  0  0  0  0  0  0  0
    3.4164    0.5428    0.9516 H   0  0  0  0  0  0  0  0  0  0  0  0
    5.1027    1.0233    1.4108 H   0  0  0  0  0  0  0  0  0  0  0  0
    5.8511   -1.3532    1.0707 H   0  0  0  0  0  0  0  0  0  0  0  0
    4.1683   -1.8056    0.6170 H   0  0  0  0  0  0  0  0  0  0  0  0
    5.1519   -0.8574    3.1118 H   0  0  0  0  0  0  0  0  0  0  0  0
    3.8028   -3.8799   -2.2336 H   0  0  0  0  0  0  0  0  0  0  0  0
    2.4454   -5.4709   -0.9775 H   0  0  0  0  0  0  0  0  0  0  0  0
    0.5107   -5.9001    0.4729 H   0  0  0  0  0  0  0  0  0  0  0  0
   -1.7949   -3.4628    1.7819 H   0  0  0  0  0  0  0  0  0  0  0  0
  1  2  1  0
  2  3  1  0
  3  4  1  0
  4  5  1  0
  5  6  1  0
  6  7  1  0
  7  8  1  0
  8  9  2  0
  9 10  1  0
 10 11  2  0
 11 12  1  0
 12 13  1  0
 13 14  1  0
 14 15  1  0
 15 16  1  0
 16 17  1  0
 17 18  1  0
 11 19  1  0
 19 20  2  0
 20 21  1  0
 21 22  2  0
 21 23  1  0
 23 24  2  0
 24 25  1  0
 25 26  1  0
 25 27  2  0
 27 28  1  0
 28 29  2  0
 29 30  1  0
 24 31  1  0
 31 32  2  0
 20  8  1  0
 29 23  1  0
 31 19  1  0
  1 33  1  0
  2 34  1  0
  2 35  1  0
  3 36  1  0
  3 37  1  0
  4 38  1  0
  5 39  1  0
  5 40  1  0
  6 41  1  0
  6 42  1  0
  7 43  1  0
  9 44  1  0
 10 45  1  0
 12 46  1  0
 13 47  1  0
 13 48  1  0
 14 49  1  0
 14 50  1  0
 15 51  1  0
 16 52  1  0
 16 53  1  0
 17 54  1  0
 17 55  1  0
 18 56  1  0
 26 57  1  0
 27 58  1  0
 28 59  1  0
 30 60  1  0
M  END
$$$$
