
     RDKit          3D

 52 56  0  0  0  0  0  0  0  0999 V2000
   -5.6335    0.1914    0.7454 C   0  0  1  0  0  0  0  0  0  0  0  0
   -6.6194   -0.8047    1.3599 C   0  0  0  0  0  0  0  0  0  0  0  0
   -4.3142   -0.5064    0.3678 C   0  0  0  0  0  0  0  0  0  0  0  0
   -3.4359    0.4386   -0.3298 N   0  0  0  0  0  0  0  0  0  0  0  0
   -4.0077    1.2164   -1.4341 C   0  0  0  0  0  0  0  0  0  0  0  0
   -5.3354    1.8461   -0.9980 C   0  0  0  0  0  0  0  0  0  0  0  0
   -6.2411    0.8373   -0.4306 N   0  0  0  0  0  0  0  0  0  0  0  0
   -2.0060    0.3476   -0.1828 C   0  0  0  0  0  0  0  0  0  0  0  0
   -1.2388    1.5167   -0.0408 C   0  0  0  0  0  0  0  0  0  0  0  0
    0.1491    1.4446    0.1076 C   0  0  0  0  0  0  0  0  0  0  0  0
    0.7873    0.2026    0.1178 C   0  0  0  0  0  0  0  0  0  0  0  0
    2.1437    0.1243    0.2612 N   0  0  0  0  0  0  0  0  0  0  0  0
    2.8020   -1.0727    0.2700 C   0  0  0  0  0  0  0  0  0  0  0  0
    4.2278   -1.1220    0.4302 N   0  0  0  0  0  0  0  0  0  0  0  0
    5.0332    0.0659    0.4374 C   0  0  0  0  0  0  0  0  0  0  0  0
    5.1582    0.8685   -0.7226 C   0  0  0  0  0  0  0  0  0  0  0  0
    4.4714    0.5056   -2.0120 C   0  0  0  0  0  0  0  0  0  0  0  0
    5.9250    2.0438   -0.6673 C   0  0  0  0  0  0  0  0  0  0  0  0
    6.5951    2.3979    0.5047 C   0  0  0  0  0  0  0  0  0  0  0  0
    6.5041    1.5870    1.6358 C   0  0  0  0  0  0  0  0  0  0  0  0
    5.7298    0.4233    1.6073 C   0  0  0  0  0  0  0  0  0  0  0  0
    5.6139   -0.5552    3.0642 Cl  0  0  0  0  0  0  0  0  0  0  0  0
    2.0366   -2.2360    0.1357 C   0  0  0  0  0  0  0  0  0  0  0  0
    2.4174   -3.5597    0.1059 C   0  0  0  0  0  0  0  0  0  0  0  0
    1.3116   -4.3231   -0.0511 N   0  0  0  0  0  0  0  0  0  0  0  0
    0.2843   -3.4436   -0.1142 C   0  0  0  0  0  0  0  0  0  0  0  0
    0.7057   -2.1668   -0.0039 N   0  0  0  0  0  0  0  0  0  0  0  0
    0.0281   -0.9838   -0.0206 C   0  0  0  0  0  0  0  0  0  0  0  0
   -1.3666   -0.9055   -0.1696 C   0  0  0  0  0  0  0  0  0  0  0  0
   -5.4179    0.9659    1.5164 H   0  0  0  0  0  0  0  0  0  0  0  0
   -6.1832   -1.2613    2.2739 H   0  0  0  0  0  0  0  0  0  0  0  0
   -7.5571   -0.2807    1.6426 H   0  0  0  0  0  0  0  0  0  0  0  0
   -6.8649   -1.6109    0.6358 H   0  0  0  0  0  0  0  0  0  0  0  0
   -4.5144   -1.3755   -0.2967 H   0  0  0  0  0  0  0  0  0  0  0  0
   -3.8223   -0.8752    1.2953 H   0  0  0  0  0  0  0  0  0  0  0  0
   -3.3162    2.0222   -1.7604 H   0  0  0  0  0  0  0  0  0  0  0  0
   -4.1814    0.5434   -2.3016 H   0  0  0  0  0  0  0  0  0  0  0  0
   -5.8212    2.3210   -1.8774 H   0  0  0  0  0  0  0  0  0  0  0  0
   -5.1439    2.6462   -0.2491 H   0  0  0  0  0  0  0  0  0  0  0  0
   -6.4365    0.1142   -1.1639 H   0  0  0  0  0  0  0  0  0  0  0  0
   -1.7200    2.4863   -0.0293 H   0  0  0  0  0  0  0  0  0  0  0  0
    0.7252    2.3551    0.2176 H   0  0  0  0  0  0  0  0  0  0  0  0
    4.6825   -2.0226    0.6997 H   0  0  0  0  0  0  0  0  0  0  0  0
    3.4460    0.9295   -2.0219 H   0  0  0  0  0  0  0  0  0  0  0  0
    4.4167   -0.5962   -2.1368 H   0  0  0  0  0  0  0  0  0  0  0  0
    5.0300    0.9100   -2.8829 H   0  0  0  0  0  0  0  0  0  0  0  0
    6.0134    2.6829   -1.5373 H   0  0  0  0  0  0  0  0  0  0  0  0
    7.1900    3.3017    0.5347 H   0  0  0  0  0  0  0  0  0  0  0  0
    7.0306    1.8686    2.5389 H   0  0  0  0  0  0  0  0  0  0  0  0
    3.4213   -3.9537    0.1866 H   0  0  0  0  0  0  0  0  0  0  0  0
   -0.7464   -3.7454   -0.2404 H   0  0  0  0  0  0  0  0  0  0  0  0
   -1.9560   -1.8037   -0.2881 H   0  0  0  0  0  0  0  0  0  0  0  0
  1  2  1  0
  1  3  1  0
  3  4  1  0
  4  5  1  0
  5  6  1  0
  6  7  1  0
  4  8  1  0
  8  9  2  0
  9 10  1  0
 10 11  2  0
 11 12  1  0
 12 13  2  0
 13 14  1  0
 14 15  1  0
 15 16  2  0
 16 17  1  0
 16 18  1  0
 18 19  2  0
 19 20  1  0
 20 21  2  0
 21 22  1  0
 13 23  1  0
 23 24  2  0
 24 25  1  0
 25 26  2  0
 26 27  1  0
 27 28  1  0
 28 29  2  0
  7  1  1  0
 29  8  1  0
 28 11  1  0
 21 15  1  0
 27 23  1  0
  1 30  1  1
  2 31  1  0
  2 32  1  0
  2 33  1  0
  3 34  1  0
  3 35  1  0
  5 36  1  0
  5 37  1  0
  6 38  1  0
  6 39  1  0
  7 40  1  0
  9 41  1  0
 10 42  1  0
 14 43  1  0
 17 44  1  0
 17 45  1  0
 17 46  1  0
 18 47  1  0
 19 48  1  0
 20 49  1  0
 24 50  1  0
 26 51  1  0
 29 52  1  0
M  END
$$$$
