
     RDKit          3D

 55 58  0  0  0  0  0  0  0  0999 V2000
    2.9073    0.4047    2.6279 C   0  0  1  0  0  0  0  0  0  0  0  0
    3.8727    0.6766    1.4670 C   0  0  0  0  0  0  0  0  0  0  0  0
    5.1772    0.3005    1.8426 O   0  0  0  0  0  0  0  0  0  0  0  0
    6.1908    0.4145    0.4758 P   0  0  0  0  0  5  0  0  0  0  0  0
    6.1773    2.0036   -0.1146 O   0  0  0  0  0  0  0  0  0  0  0  0
    7.5960    0.0616    0.9091 O   0  0  0  0  0  0  0  0  0  0  0  0
    5.6497   -0.6854   -0.7097 O   0  0  0  0  0  0  0  0  0  0  0  0
    6.6813   -0.5577   -2.0591 P   0  0  0  0  0  5  0  0  0  0  0  0
    6.1984   -1.7043   -3.2061 O   0  0  0  0  0  0  0  0  0  0  0  0
    8.2866   -0.8710   -1.6188 O   0  0  0  0  0  0  0  0  0  0  0  0
    6.5792    0.8203   -2.6750 O   0  0  0  0  0  0  0  0  0  0  0  0
    1.6375    0.9380    2.3018 O   0  0  0  0  0  0  0  0  0  0  0  0
    0.7122   -0.1270    2.2244 C   0  0  1  0  0  0  0  0  0  0  0  0
   -0.1114    0.0077    1.0221 N   0  0  0  0  0  0  0  0  0  0  0  0
    0.2565    0.4813   -0.1976 C   0  0  0  0  0  0  0  0  0  0  0  0
   -0.7236    0.3723   -1.1369 N   0  0  0  0  0  0  0  0  0  0  0  0
   -1.7283   -0.2068   -0.4524 C   0  0  0  0  0  0  0  0  0  0  0  0
   -2.9905   -0.5915   -0.8918 C   0  0  0  0  0  0  0  0  0  0  0  0
   -3.4121   -0.3696   -2.2455 N   0  0  0  0  0  0  0  0  0  0  0  0
   -4.7531   -0.7107   -2.7150 C   0  0  0  0  0  0  0  0  0  0  0  0
   -5.7634    0.2524   -2.1530 C   0  0  0  0  0  0  0  0  0  0  0  0
   -6.6870   -0.1650   -1.1798 C   0  0  0  0  0  0  0  0  0  0  0  0
   -7.6078    0.7433   -0.6480 C   0  0  0  0  0  0  0  0  0  0  0  0
   -7.6119    2.0720   -1.0815 C   0  0  0  0  0  0  0  0  0  0  0  0
   -6.6941    2.4952   -2.0468 C   0  0  0  0  0  0  0  0  0  0  0  0
   -5.7713    1.5903   -2.5808 C   0  0  0  0  0  0  0  0  0  0  0  0
   -3.8153   -1.1958    0.0176 N   0  0  0  0  0  0  0  0  0  0  0  0
   -3.4180   -1.4166    1.3118 C   0  0  0  0  0  0  0  0  0  0  0  0
   -2.1741   -1.0343    1.7300 N   0  0  0  0  0  0  0  0  0  0  0  0
   -1.3607   -0.4312    0.8298 C   0  0  0  0  0  0  0  0  0  0  0  0
    1.4813   -1.4464    2.2037 C   0  0  2  0  0  0  0  0  0  0  0  0
    0.7825   -2.5199    2.7907 O   0  0  0  0  0  0  0  0  0  0  0  0
    2.7656   -1.0984    2.9181 C   0  0  2  0  0  0  0  0  0  0  0  0
    2.6946   -1.3489    4.3036 O   0  0  0  0  0  0  0  0  0  0  0  0
    3.2939    0.9343    3.5270 H   0  0  0  0  0  0  0  0  0  0  0  0
    3.5199    0.1105    0.5740 H   0  0  0  0  0  0  0  0  0  0  0  0
    3.8432    1.7665    1.2447 H   0  0  0  0  0  0  0  0  0  0  0  0
    5.3353    2.0808   -0.6300 H   0  0  0  0  0  0  0  0  0  0  0  0
    6.8326   -1.5942   -3.9589 H   0  0  0  0  0  0  0  0  0  0  0  0
    8.8057   -0.7632   -2.4553 H   0  0  0  0  0  0  0  0  0  0  0  0
    0.0580   -0.0666    3.1225 H   0  0  0  0  0  0  0  0  0  0  0  0
    1.2348    0.8916   -0.4114 H   0  0  0  0  0  0  0  0  0  0  0  0
   -2.7420    0.0517   -2.9281 H   0  0  0  0  0  0  0  0  0  0  0  0
   -4.7800   -0.6510   -3.8247 H   0  0  0  0  0  0  0  0  0  0  0  0
   -4.9918   -1.7611   -2.4395 H   0  0  0  0  0  0  0  0  0  0  0  0
   -6.6931   -1.1901   -0.8306 H   0  0  0  0  0  0  0  0  0  0  0  0
   -8.3173    0.4173    0.1015 H   0  0  0  0  0  0  0  0  0  0  0  0
   -8.3248    2.7737   -0.6684 H   0  0  0  0  0  0  0  0  0  0  0  0
   -6.6964    3.5249   -2.3800 H   0  0  0  0  0  0  0  0  0  0  0  0
   -5.0615    1.9310   -3.3246 H   0  0  0  0  0  0  0  0  0  0  0  0
   -4.0932   -1.8981    2.0055 H   0  0  0  0  0  0  0  0  0  0  0  0
    1.7272   -1.7197    1.1526 H   0  0  0  0  0  0  0  0  0  0  0  0
    0.4170   -2.2248    3.6643 H   0  0  0  0  0  0  0  0  0  0  0  0
    3.6090   -1.6926    2.5018 H   0  0  0  0  0  0  0  0  0  0  0  0
    1.9996   -0.7558    4.6939 H   0  0  0  0  0  0  0  0  0  0  0  0
  1  2  1  0
  2  3  1  0
  3  4  1  0
  4  5  1  0
  4  6  2  0
  4  7  1  0
  7  8  1  0
  8  9  1  0
  8 10  1  0
  8 11  2  0
  1 12  1  0
 12 13  1  0
 13 14  1  0
 14 15  1  0
 15 16  2  0
 16 17  1  0
 17 18  2  0
 18 19  1  0
 19 20  1  0
 20 21  1  0
 21 22  2  0
 22 23  1  0
 23 24  2  0
 24 25  1  0
 25 26  2  0
 18 27  1  0
 27 28  2  0
 28 29  1  0
 29 30  2  0
 13 31  1  0
 31 32  1  0
 31 33  1  0
 33 34  1  0
 33  1  1  0
 30 14  1  0
 30 17  1  0
 26 21  1  0
  1 35  1  1
  2 36  1  0
  2 37  1  0
  5 38  1  0
  9 39  1  0
 10 40  1  0
 13 41  1  1
 15 42  1  0
 19 43  1  0
 20 44  1  0
 20 45  1  0
 22 46  1  0
 23 47  1  0
 24 48  1  0
 25 49  1  0
 26 50  1  0
 28 51  1  0
 31 52  1  6
 32 53  1  0
 33 54  1  6
 34 55  1  0
M  END
$$$$
