
     RDKit          3D

 58 61  0  0  0  0  0  0  0  0999 V2000
    0.9720   -1.9680    5.9004 C   0  0  0  0  0  0  0  0  0  0  0  0
    0.6104   -1.5629    4.5841 O   0  0  0  0  0  0  0  0  0  0  0  0
    1.5130   -1.0837    3.6202 C   0  0  0  0  0  0  0  0  0  0  0  0
    1.0185   -0.7205    2.3536 C   0  0  0  0  0  0  0  0  0  0  0  0
   -0.3918   -0.8200    2.0852 N   0  0  0  0  0  0  0  0  0  0  0  0
   -0.9344   -1.2451    0.8253 C   0  0  0  0  0  0  0  0  0  0  0  0
   -0.1859   -1.7674   -0.0461 O   0  0  0  0  0  0  0  0  0  0  0  0
   -2.3797   -1.0986    0.5715 C   0  0  0  0  0  0  0  0  0  0  0  0
   -2.9481   -1.4806   -0.5769 C   0  0  0  0  0  0  0  0  0  0  0  0
   -4.4228   -1.3090   -0.8109 C   0  0  0  0  0  0  0  0  0  0  0  0
   -4.8073    0.1191   -0.7887 N   0  0  0  0  0  0  0  0  0  0  0  0
   -4.1527    0.8722   -1.8922 C   0  0  0  0  0  0  0  0  0  0  0  0
   -4.8952    2.1721   -2.2208 C   0  0  0  0  0  0  0  0  0  0  0  0
   -6.3261    1.8812   -2.7040 C   0  0  0  0  0  0  0  0  0  0  0  0
   -6.8964    0.5800   -2.1137 C   0  0  0  0  0  0  0  0  0  0  0  0
   -6.2854    0.2824   -0.7375 C   0  0  0  0  0  0  0  0  0  0  0  0
    1.8974   -0.2163    1.3781 C   0  0  0  0  0  0  0  0  0  0  0  0
    3.2725   -0.0933    1.6461 C   0  0  0  0  0  0  0  0  0  0  0  0
    4.1992    0.3945    0.6980 C   0  0  0  0  0  0  0  0  0  0  0  0
    3.7754    0.8839   -0.5862 N   0  0  0  0  0  0  0  0  0  0  0  0
    4.5816    0.7899   -1.7737 C   0  0  0  0  0  0  0  0  0  0  0  0
    4.4047    1.7259   -2.8051 C   0  0  0  0  0  0  0  0  0  0  0  0
    5.1636    1.6420   -3.9782 C   0  0  0  0  0  0  0  0  0  0  0  0
    4.9351    2.8310   -5.2495 Cl  0  0  0  0  0  0  0  0  0  0  0  0
    6.0982    0.6111   -4.1336 C   0  0  0  0  0  0  0  0  0  0  0  0
    6.8373    0.5198   -5.2674 F   0  0  0  0  0  0  0  0  0  0  0  0
    6.2667   -0.3360   -3.1200 C   0  0  0  0  0  0  0  0  0  0  0  0
    5.5099   -0.2534   -1.9476 C   0  0  0  0  0  0  0  0  0  0  0  0
    5.5186    0.4510    1.0282 N   0  0  0  0  0  0  0  0  0  0  0  0
    5.9673    0.0492    2.2436 C   0  0  0  0  0  0  0  0  0  0  0  0
    5.0944   -0.4128    3.1725 N   0  0  0  0  0  0  0  0  0  0  0  0
    3.7653   -0.4932    2.9059 C   0  0  0  0  0  0  0  0  0  0  0  0
    2.8910   -0.9735    3.8843 C   0  0  0  0  0  0  0  0  0  0  0  0
    1.6833   -2.8197    5.8560 H   0  0  0  0  0  0  0  0  0  0  0  0
    0.0608   -2.2949    6.4418 H   0  0  0  0  0  0  0  0  0  0  0  0
    1.4263   -1.1171    6.4508 H   0  0  0  0  0  0  0  0  0  0  0  0
   -1.0591   -0.6434    2.8700 H   0  0  0  0  0  0  0  0  0  0  0  0
   -2.9953   -0.6558    1.3458 H   0  0  0  0  0  0  0  0  0  0  0  0
   -2.3528   -1.9275   -1.3641 H   0  0  0  0  0  0  0  0  0  0  0  0
   -4.7052   -1.7741   -1.7817 H   0  0  0  0  0  0  0  0  0  0  0  0
   -4.9511   -1.8663   -0.0055 H   0  0  0  0  0  0  0  0  0  0  0  0
   -4.0907    0.2583   -2.8200 H   0  0  0  0  0  0  0  0  0  0  0  0
   -3.1155    1.1302   -1.5878 H   0  0  0  0  0  0  0  0  0  0  0  0
   -4.3424    2.7337   -3.0046 H   0  0  0  0  0  0  0  0  0  0  0  0
   -4.9302    2.8070   -1.3082 H   0  0  0  0  0  0  0  0  0  0  0  0
   -6.3360    1.8052   -3.8132 H   0  0  0  0  0  0  0  0  0  0  0  0
   -6.9797    2.7354   -2.4223 H   0  0  0  0  0  0  0  0  0  0  0  0
   -6.6754   -0.2693   -2.7967 H   0  0  0  0  0  0  0  0  0  0  0  0
   -8.0011    0.6640   -2.0240 H   0  0  0  0  0  0  0  0  0  0  0  0
   -6.5215    1.1258   -0.0530 H   0  0  0  0  0  0  0  0  0  0  0  0
   -6.7906   -0.6095   -0.3047 H   0  0  0  0  0  0  0  0  0  0  0  0
    1.4960    0.0843    0.4214 H   0  0  0  0  0  0  0  0  0  0  0  0
    2.8986    1.4497   -0.6356 H   0  0  0  0  0  0  0  0  0  0  0  0
    3.6823    2.5248   -2.6921 H   0  0  0  0  0  0  0  0  0  0  0  0
    6.9799   -1.1406   -3.2451 H   0  0  0  0  0  0  0  0  0  0  0  0
    5.6372   -1.0141   -1.1887 H   0  0  0  0  0  0  0  0  0  0  0  0
    7.0220    0.1052    2.4748 H   0  0  0  0  0  0  0  0  0  0  0  0
    3.2942   -1.2627    4.8458 H   0  0  0  0  0  0  0  0  0  0  0  0
  1  2  1  0
  2  3  1  0
  3  4  2  0
  4  5  1  0
  5  6  1  0
  6  7  2  0
  6  8  1  0
  8  9  2  0
  9 10  1  0
 10 11  1  0
 11 12  1  0
 12 13  1  0
 13 14  1  0
 14 15  1  0
 15 16  1  0
  4 17  1  0
 17 18  2  0
 18 19  1  0
 19 20  1  0
 20 21  1  0
 21 22  2  0
 22 23  1  0
 23 24  1  0
 23 25  2  0
 25 26  1  0
 25 27  1  0
 27 28  2  0
 19 29  2  0
 29 30  1  0
 30 31  2  0
 31 32  1  0
 32 33  2  0
 33  3  1  0
 16 11  1  0
 32 18  1  0
 28 21  1  0
  1 34  1  0
  1 35  1  0
  1 36  1  0
  5 37  1  0
  8 38  1  0
  9 39  1  0
 10 40  1  0
 10 41  1  0
 12 42  1  0
 12 43  1  0
 13 44  1  0
 13 45  1  0
 14 46  1  0
 14 47  1  0
 15 48  1  0
 15 49  1  0
 16 50  1  0
 16 51  1  0
 17 52  1  0
 20 53  1  0
 22 54  1  0
 27 55  1  0
 28 56  1  0
 30 57  1  0
 33 58  1  0
M  END
$$$$
