
     RDKit          3D

 37 39  0  0  0  0  0  0  0  0999 V2000
   -6.6579   -1.3895    0.4758 C   0  0  0  0  0  0  0  0  0  0  0  0
   -5.6197   -0.4062    0.0162 C   0  0  0  0  0  0  0  0  0  0  0  0
   -4.2621   -0.6170    0.3111 C   0  0  0  0  0  0  0  0  0  0  0  0
   -3.2837    0.3129   -0.0950 C   0  0  0  0  0  0  0  0  0  0  0  0
   -3.6919    1.4575   -0.8037 C   0  0  0  0  0  0  0  0  0  0  0  0
   -5.0420    1.6761   -1.0848 C   0  0  0  0  0  0  0  0  0  0  0  0
   -6.0054    0.7541   -0.6727 C   0  0  0  0  0  0  0  0  0  0  0  0
   -7.3134    0.9911   -0.9472 F   0  0  0  0  0  0  0  0  0  0  0  0
   -1.8416    0.1029    0.1990 C   0  0  0  0  0  0  0  0  0  0  0  0
   -1.3522   -0.8113    1.1389 C   0  0  0  0  0  0  0  0  0  0  0  0
    0.3253   -0.6961    1.1615 S   0  0  0  0  0  0  0  0  0  0  0  0
    0.3662    0.4890   -0.0323 C   0  0  0  0  0  0  0  0  0  0  0  0
    1.5405    1.1641   -0.5030 N   0  0  0  0  0  0  0  0  0  0  0  0
    2.8809    0.6951   -0.2879 C   0  0  0  0  0  0  0  0  0  0  0  0
    3.9005    1.6187   -0.0357 C   0  0  0  0  0  0  0  0  0  0  0  0
    5.2156    1.1891    0.1530 C   0  0  0  0  0  0  0  0  0  0  0  0
    5.5449   -0.1764    0.0758 C   0  0  0  0  0  0  0  0  0  0  0  0
    6.9544   -0.5954    0.2859 C   0  0  0  0  0  0  0  0  0  0  0  0
    7.9343    0.3582    0.5511 O   0  0  0  0  0  0  0  0  0  0  0  0
    7.2844   -1.8106    0.2295 O   0  0  0  0  0  0  0  0  0  0  0  0
    4.5204   -1.1088   -0.2086 C   0  0  0  0  0  0  0  0  0  0  0  0
    4.8045   -2.4707   -0.3129 O   0  0  0  0  0  0  0  0  0  0  0  0
    3.2020   -0.6664   -0.3949 C   0  0  0  0  0  0  0  0  0  0  0  0
   -0.8762    0.8278   -0.4344 N   0  0  0  0  0  0  0  0  0  0  0  0
   -7.2025   -0.9715    1.3482 H   0  0  0  0  0  0  0  0  0  0  0  0
   -6.1973   -2.3561    0.7714 H   0  0  0  0  0  0  0  0  0  0  0  0
   -7.3815   -1.5919   -0.3421 H   0  0  0  0  0  0  0  0  0  0  0  0
   -3.9778   -1.5154    0.8412 H   0  0  0  0  0  0  0  0  0  0  0  0
   -2.9684    2.1935   -1.1316 H   0  0  0  0  0  0  0  0  0  0  0  0
   -5.3421    2.5670   -1.6216 H   0  0  0  0  0  0  0  0  0  0  0  0
   -1.9316   -1.4644    1.7756 H   0  0  0  0  0  0  0  0  0  0  0  0
    1.4097    2.0941   -0.9613 H   0  0  0  0  0  0  0  0  0  0  0  0
    3.6724    2.6755    0.0269 H   0  0  0  0  0  0  0  0  0  0  0  0
    5.9760    1.9319    0.3591 H   0  0  0  0  0  0  0  0  0  0  0  0
    8.8994    0.0866    0.6970 H   0  0  0  0  0  0  0  0  0  0  0  0
    4.0826   -3.1522   -0.5165 H   0  0  0  0  0  0  0  0  0  0  0  0
    2.4333   -1.3853   -0.6466 H   0  0  0  0  0  0  0  0  0  0  0  0
  1  2  1  0
  2  3  2  0
  3  4  1  0
  4  5  2  0
  5  6  1  0
  6  7  2  0
  7  8  1  0
  4  9  1  0
  9 10  2  0
 10 11  1  0
 11 12  1  0
 12 13  1  0
 13 14  1  0
 14 15  2  0
 15 16  1  0
 16 17  2  0
 17 18  1  0
 18 19  1  0
 18 20  2  0
 17 21  1  0
 21 22  1  0
 21 23  2  0
 12 24  2  0
  7  2  1  0
 24  9  1  0
 23 14  1  0
  1 25  1  0
  1 26  1  0
  1 27  1  0
  3 28  1  0
  5 29  1  0
  6 30  1  0
 10 31  1  0
 13 32  1  0
 15 33  1  0
 16 34  1  0
 19 35  1  0
 22 36  1  0
 23 37  1  0
M  END
$$$$
