
     RDKit          3D

159162  0  0  0  0  0  0  0  0999 V2000
    5.4805   -3.2144   -3.9155 N   0  0  0  0  0  0  0  0  0  0  0  0
    5.9417   -2.1799   -2.9954 C   0  0  0  0  0  0  0  0  0  0  0  0
    4.8162   -1.7988   -2.0267 C   0  0  0  0  0  0  0  0  0  0  0  0
    5.1662   -0.5893   -1.1508 C   0  0  0  0  0  0  0  0  0  0  0  0
    6.2920   -0.8911   -0.1410 C   0  0  0  0  0  0  0  0  0  0  0  0
    6.5213    0.2502    0.8725 C   0  0  2  0  0  0  0  0  0  0  0  0
    5.3609    0.4124    1.7619 N   0  0  0  0  0  0  0  0  0  0  0  0
    5.3195    1.3998    2.8072 C   0  0  0  0  0  0  0  0  0  0  0  0
    6.2470    2.2481    2.9097 O   0  0  0  0  0  0  0  0  0  0  0  0
    4.2258    1.4081    3.8481 C   0  0  2  0  0  0  0  0  0  0  0  0
    4.7092    0.7104    5.1235 C   0  0  0  0  0  0  0  0  0  0  0  0
    3.5298   -0.1158    5.6178 C   0  0  0  0  0  0  0  0  0  0  0  0
    2.6499   -0.3440    4.3996 C   0  0  0  0  0  0  0  0  0  0  0  0
    3.0218    0.6830    3.4386 N   0  0  0  0  0  0  0  0  0  0  0  0
    2.1659    0.9899    2.3156 C   0  0  0  0  0  0  0  0  0  0  0  0
    1.2487    0.1763    2.0161 O   0  0  0  0  0  0  0  0  0  0  0  0
    2.3120    2.2619    1.5030 C   0  0  2  0  0  0  0  0  0  0  0  0
    1.8673    3.5136    2.3032 C   0  0  0  0  0  0  0  0  0  0  0  0
    0.1341    4.0529    2.0550 S   0  0  0  0  0  0  0  0  0  0  0  0
   -0.7415    2.4766    3.2011 S   0  0  0  0  0  0  0  0  0  0  0  0
   -2.4248    2.7267    2.5272 C   0  0  0  0  0  0  0  0  0  0  0  0
   -2.5738    2.2113    1.0843 C   0  0  2  0  0  0  0  0  0  0  0  0
   -3.9025    2.5438    0.5605 N   0  0  0  0  0  0  0  0  0  0  0  0
   -4.2443    2.3602   -0.8212 C   0  0  0  0  0  0  0  0  0  0  0  0
   -3.3605    2.0309   -1.6579 O   0  0  0  0  0  0  0  0  0  0  0  0
   -5.6456    2.6023   -1.2883 C   0  0  0  0  0  0  0  0  0  0  0  0
   -5.8538    4.0330   -1.4858 N   0  0  0  0  0  0  0  0  0  0  0  0
   -6.3054    4.8928   -0.4312 C   0  0  0  0  0  0  0  0  0  0  0  0
   -6.9039    4.4161    0.5708 O   0  0  0  0  0  0  0  0  0  0  0  0
   -6.0250    6.3613   -0.4970 C   0  0  0  0  0  0  0  0  0  0  0  0
   -4.5869    6.5937   -0.3935 N   0  0  0  0  0  0  0  0  0  0  0  0
   -3.8607    6.3779    0.8246 C   0  0  0  0  0  0  0  0  0  0  0  0
   -4.4725    6.0856    1.8877 O   0  0  0  0  0  0  0  0  0  0  0  0
   -2.3680    6.4879    0.8377 C   0  0  0  0  0  0  0  0  0  0  0  0
   -1.9599    7.8341    0.4529 N   0  0  0  0  0  0  0  0  0  0  0  0
   -2.3718    0.7212    1.0181 C   0  0  0  0  0  0  0  0  0  0  0  0
   -1.3302    0.2577    0.4807 O   0  0  0  0  0  0  0  0  0  0  0  0
   -3.3731   -0.1708    1.5283 N   0  0  0  0  0  0  0  0  0  0  0  0
   -3.3536   -1.6006    1.2041 C   0  0  1  0  0  0  0  0  0  0  0  0
   -4.3517   -2.3923    2.0823 C   0  0  0  0  0  0  0  0  0  0  0  0
   -5.8034   -2.1169    1.7615 C   0  0  0  0  0  0  0  0  0  0  0  0
   -6.5239   -1.1428    2.4729 C   0  0  0  0  0  0  0  0  0  0  0  0
   -7.8606   -0.8823    2.1559 C   0  0  0  0  0  0  0  0  0  0  0  0
   -8.4939   -1.5953    1.1329 C   0  0  0  0  0  0  0  0  0  0  0  0
   -9.8255   -1.3239    0.8273 O   0  0  0  0  0  0  0  0  0  0  0  0
   -7.7844   -2.5759    0.4271 C   0  0  0  0  0  0  0  0  0  0  0  0
   -6.4480   -2.8362    0.7411 C   0  0  0  0  0  0  0  0  0  0  0  0
   -3.6220   -1.8004   -0.2746 C   0  0  0  0  0  0  0  0  0  0  0  0
   -4.3901   -0.9950   -0.8681 O   0  0  0  0  0  0  0  0  0  0  0  0
   -3.0768   -2.9010   -1.0194 N   0  0  0  0  0  0  0  0  0  0  0  0
   -2.1383   -3.8913   -0.4823 C   0  0  1  0  0  0  0  0  0  0  0  0
   -2.3791   -5.2661   -1.1304 C   0  0  0  0  0  0  0  0  0  0  0  0
   -3.7810   -5.7525   -0.8595 C   0  0  0  0  0  0  0  0  0  0  0  0
   -4.1123   -6.2889    0.3964 C   0  0  0  0  0  0  0  0  0  0  0  0
   -5.4240   -6.6897    0.6678 C   0  0  0  0  0  0  0  0  0  0  0  0
   -6.4139   -6.5560   -0.3095 C   0  0  0  0  0  0  0  0  0  0  0  0
   -6.0942   -6.0187   -1.5593 C   0  0  0  0  0  0  0  0  0  0  0  0
   -4.7841   -5.6139   -1.8341 C   0  0  0  0  0  0  0  0  0  0  0  0
   -0.7255   -3.4253   -0.7157 C   0  0  0  0  0  0  0  0  0  0  0  0
    0.0563   -3.3123    0.2672 O   0  0  0  0  0  0  0  0  0  0  0  0
   -0.2720   -3.1137   -2.0432 N   0  0  0  0  0  0  0  0  0  0  0  0
    1.0862   -2.6525   -2.3439 C   0  0  1  0  0  0  0  0  0  0  0  0
    1.7102   -3.5254   -3.4595 C   0  0  0  0  0  0  0  0  0  0  0  0
    2.3189   -4.8352   -2.9359 C   0  0  0  0  0  0  0  0  0  0  0  0
    1.2874   -5.7734   -2.3821 C   0  0  0  0  0  0  0  0  0  0  0  0
    1.2992   -6.1268   -0.9988 N   0  0  0  0  0  0  0  0  0  0  0  0
    0.4150   -6.2672   -3.1454 O   0  0  0  0  0  0  0  0  0  0  0  0
    1.0325   -1.2013   -2.7528 C   0  0  0  0  0  0  0  0  0  0  0  0
    0.7507   -0.8954   -3.9440 O   0  0  0  0  0  0  0  0  0  0  0  0
    1.2689   -0.1708   -1.7801 N   0  0  0  0  0  0  0  0  0  0  0  0
    1.4837    1.2329   -2.1540 C   0  0  1  0  0  0  0  0  0  0  0  0
    0.1422    1.9032   -2.5158 C   0  0  0  0  0  0  0  0  0  0  0  0
    0.3234    3.3402   -2.9118 C   0  0  0  0  0  0  0  0  0  0  0  0
    0.0455    4.3887   -1.9838 N   0  0  0  0  0  0  0  0  0  0  0  0
    0.7509    3.6223   -4.0629 O   0  0  0  0  0  0  0  0  0  0  0  0
    2.2010    1.9566   -1.0345 C   0  0  0  0  0  0  0  0  0  0  0  0
    3.3686    2.3877   -1.2285 O   0  0  0  0  0  0  0  0  0  0  0  0
    1.5689    2.1409    0.2407 N   0  0  0  0  0  0  0  0  0  0  0  0
    6.8746    1.5349    0.1594 C   0  0  0  0  0  0  0  0  0  0  0  0
    5.9813    2.3921   -0.0808 O   0  0  0  0  0  0  0  0  0  0  0  0
    8.2175    1.7542   -0.2908 N   0  0  0  0  0  0  0  0  0  0  0  0
    8.5883    2.9676   -1.0164 C   0  0  0  0  0  0  0  0  0  0  0  0
   10.0462    2.9510   -1.3619 C   0  0  0  0  0  0  0  0  0  0  0  0
   11.0227    3.3034   -0.3825 N   0  0  0  0  0  0  0  0  0  0  0  0
   10.4150    2.5856   -2.5097 O   0  0  0  0  0  0  0  0  0  0  0  0
    5.3664   -4.1036   -3.3764 H   0  0  0  0  0  0  0  0  0  0  0  0
    6.2427   -3.3855   -4.6106 H   0  0  0  0  0  0  0  0  0  0  0  0
    6.2452   -1.2842   -3.5807 H   0  0  0  0  0  0  0  0  0  0  0  0
    6.8257   -2.5531   -2.4334 H   0  0  0  0  0  0  0  0  0  0  0  0
    3.9182   -1.5323   -2.6215 H   0  0  0  0  0  0  0  0  0  0  0  0
    4.5564   -2.6681   -1.3844 H   0  0  0  0  0  0  0  0  0  0  0  0
    4.2463   -0.2923   -0.6036 H   0  0  0  0  0  0  0  0  0  0  0  0
    5.4562    0.2615   -1.8045 H   0  0  0  0  0  0  0  0  0  0  0  0
    7.2423   -1.0675   -0.6892 H   0  0  0  0  0  0  0  0  0  0  0  0
    6.0521   -1.8224    0.4175 H   0  0  0  0  0  0  0  0  0  0  0  0
    7.3895   -0.0364    1.5058 H   0  0  0  0  0  0  0  0  0  0  0  0
    4.6049   -0.3075    1.7315 H   0  0  0  0  0  0  0  0  0  0  0  0
    3.9610    2.4575    4.0925 H   0  0  0  0  0  0  0  0  0  0  0  0
    5.0300    1.4487    5.8906 H   0  0  0  0  0  0  0  0  0  0  0  0
    5.5595    0.0221    4.9133 H   0  0  0  0  0  0  0  0  0  0  0  0
    3.8635   -1.0781    6.0632 H   0  0  0  0  0  0  0  0  0  0  0  0
    2.9660    0.4650    6.3809 H   0  0  0  0  0  0  0  0  0  0  0  0
    2.8389   -1.3477    3.9608 H   0  0  0  0  0  0  0  0  0  0  0  0
    1.5777   -0.2501    4.6801 H   0  0  0  0  0  0  0  0  0  0  0  0
    3.3893    2.3878    1.2751 H   0  0  0  0  0  0  0  0  0  0  0  0
    2.0362    3.3828    3.3910 H   0  0  0  0  0  0  0  0  0  0  0  0
    2.5050    4.3661    1.9863 H   0  0  0  0  0  0  0  0  0  0  0  0
   -2.6705    3.8093    2.5655 H   0  0  0  0  0  0  0  0  0  0  0  0
   -3.1445    2.2030    3.1916 H   0  0  0  0  0  0  0  0  0  0  0  0
   -1.8160    2.7189    0.4509 H   0  0  0  0  0  0  0  0  0  0  0  0
   -4.6449    2.8816    1.2146 H   0  0  0  0  0  0  0  0  0  0  0  0
   -6.3679    2.1938   -0.5493 H   0  0  0  0  0  0  0  0  0  0  0  0
   -5.8190    2.0721   -2.2495 H   0  0  0  0  0  0  0  0  0  0  0  0
   -5.4492    4.4690   -2.3453 H   0  0  0  0  0  0  0  0  0  0  0  0
   -6.3949    6.7535   -1.4684 H   0  0  0  0  0  0  0  0  0  0  0  0
   -6.5561    6.9043    0.3149 H   0  0  0  0  0  0  0  0  0  0  0  0
   -4.0663    6.8908   -1.2496 H   0  0  0  0  0  0  0  0  0  0  0  0
   -1.9516    5.7526    0.1165 H   0  0  0  0  0  0  0  0  0  0  0  0
   -1.9731    6.2488    1.8502 H   0  0  0  0  0  0  0  0  0  0  0  0
   -0.9155    7.8462    0.4016 H   0  0  0  0  0  0  0  0  0  0  0  0
   -2.2279    8.4890    1.2236 H   0  0  0  0  0  0  0  0  0  0  0  0
   -4.1645    0.2332    2.0752 H   0  0  0  0  0  0  0  0  0  0  0  0
   -2.3373   -1.9722    1.4514 H   0  0  0  0  0  0  0  0  0  0  0  0
   -4.1594   -3.4806    1.9644 H   0  0  0  0  0  0  0  0  0  0  0  0
   -4.1523   -2.1627    3.1520 H   0  0  0  0  0  0  0  0  0  0  0  0
   -6.0546   -0.5879    3.2753 H   0  0  0  0  0  0  0  0  0  0  0  0
   -8.4057   -0.1269    2.7075 H   0  0  0  0  0  0  0  0  0  0  0  0
  -10.3122   -1.8233    0.0920 H   0  0  0  0  0  0  0  0  0  0  0  0
   -8.2659   -3.1351   -0.3650 H   0  0  0  0  0  0  0  0  0  0  0  0
   -5.9114   -3.5923    0.1839 H   0  0  0  0  0  0  0  0  0  0  0  0
   -3.2892   -2.9310   -2.0430 H   0  0  0  0  0  0  0  0  0  0  0  0
   -2.2973   -4.0237    0.6076 H   0  0  0  0  0  0  0  0  0  0  0  0
   -1.6586   -6.0018   -0.7140 H   0  0  0  0  0  0  0  0  0  0  0  0
   -2.1961   -5.2149   -2.2261 H   0  0  0  0  0  0  0  0  0  0  0  0
   -3.3568   -6.3871    1.1661 H   0  0  0  0  0  0  0  0  0  0  0  0
   -5.6742   -7.0992    1.6379 H   0  0  0  0  0  0  0  0  0  0  0  0
   -7.4296   -6.8631   -0.0965 H   0  0  0  0  0  0  0  0  0  0  0  0
   -6.8634   -5.9081   -2.3126 H   0  0  0  0  0  0  0  0  0  0  0  0
   -4.5543   -5.1860   -2.8019 H   0  0  0  0  0  0  0  0  0  0  0  0
   -0.9574   -3.1655   -2.8306 H   0  0  0  0  0  0  0  0  0  0  0  0
    1.7340   -2.7271   -1.4431 H   0  0  0  0  0  0  0  0  0  0  0  0
    0.9574   -3.7454   -4.2485 H   0  0  0  0  0  0  0  0  0  0  0  0
    2.5317   -2.9631   -3.9540 H   0  0  0  0  0  0  0  0  0  0  0  0
    3.0867   -4.6089   -2.1656 H   0  0  0  0  0  0  0  0  0  0  0  0
    2.8402   -5.3459   -3.7740 H   0  0  0  0  0  0  0  0  0  0  0  0
    1.9922   -5.7021   -0.3436 H   0  0  0  0  0  0  0  0  0  0  0  0
    0.6184   -6.8251   -0.6271 H   0  0  0  0  0  0  0  0  0  0  0  0
    1.3653   -0.4556   -0.7785 H   0  0  0  0  0  0  0  0  0  0  0  0
    2.1402    1.2588   -3.0536 H   0  0  0  0  0  0  0  0  0  0  0  0
   -0.3243    1.3672   -3.3687 H   0  0  0  0  0  0  0  0  0  0  0  0
   -0.5733    1.8294   -1.6720 H   0  0  0  0  0  0  0  0  0  0  0  0
    0.1829    5.3865   -2.2582 H   0  0  0  0  0  0  0  0  0  0  0  0
   -0.2959    4.1724   -1.0219 H   0  0  0  0  0  0  0  0  0  0  0  0
    0.5429    1.9735    0.2986 H   0  0  0  0  0  0  0  0  0  0  0  0
    8.9366    1.0192   -0.0992 H   0  0  0  0  0  0  0  0  0  0  0  0
    7.9842    3.0417   -1.9468 H   0  0  0  0  0  0  0  0  0  0  0  0
    8.3714    3.8574   -0.3872 H   0  0  0  0  0  0  0  0  0  0  0  0
   12.0394    3.2786   -0.6188 H   0  0  0  0  0  0  0  0  0  0  0  0
   10.7325    3.5834    0.5807 H   0  0  0  0  0  0  0  0  0  0  0  0
  1  2  1  0
  2  3  1  0
  3  4  1  0
  4  5  1  0
  5  6  1  0
  6  7  1  0
  7  8  1  0
  8  9  2  0
  8 10  1  0
 10 11  1  0
 11 12  1  0
 12 13  1  0
 13 14  1  0
 14 15  1  0
 15 16  2  0
 15 17  1  0
 17 18  1  0
 18 19  1  0
 19 20  1  0
 20 21  1  0
 21 22  1  0
 22 23  1  0
 23 24  1  0
 24 25  2  0
 24 26  1  0
 26 27  1  0
 27 28  1  0
 28 29  2  0
 28 30  1  0
 30 31  1  0
 31 32  1  0
 32 33  2  0
 32 34  1  0
 34 35  1  0
 22 36  1  0
 36 37  2  0
 36 38  1  0
 38 39  1  0
 39 40  1  0
 40 41  1  0
 41 42  2  0
 42 43  1  0
 43 44  2  0
 44 45  1  0
 44 46  1  0
 46 47  2  0
 39 48  1  0
 48 49  2  0
 48 50  1  0
 50 51  1  0
 51 52  1  0
 52 53  1  0
 53 54  2  0
 54 55  1  0
 55 56  2  0
 56 57  1  0
 57 58  2  0
 51 59  1  0
 59 60  2  0
 59 61  1  0
 61 62  1  0
 62 63  1  0
 63 64  1  0
 64 65  1  0
 65 66  1  0
 65 67  2  0
 62 68  1  0
 68 69  2  0
 68 70  1  0
 70 71  1  0
 71 72  1  0
 72 73  1  0
 73 74  1  0
 73 75  2  0
 71 76  1  0
 76 77  2  0
 76 78  1  0
  6 79  1  0
 79 80  2  0
 79 81  1  0
 81 82  1  0
 82 83  1  0
 83 84  1  0
 83 85  2  0
 14 10  1  0
 78 17  1  0
 47 41  1  0
 58 53  1  0
  1 86  1  0
  1 87  1  0
  2 88  1  0
  2 89  1  0
  3 90  1  0
  3 91  1  0
  4 92  1  0
  4 93  1  0
  5 94  1  0
  5 95  1  0
  6 96  1  1
  7 97  1  0
 10 98  1  1
 11 99  1  0
 11100  1  0
 12101  1  0
 12102  1  0
 13103  1  0
 13104  1  0
 17105  1  6
 18106  1  0
 18107  1  0
 21108  1  0
 21109  1  0
 22110  1  6
 23111  1  0
 26112  1  0
 26113  1  0
 27114  1  0
 30115  1  0
 30116  1  0
 31117  1  0
 34118  1  0
 34119  1  0
 35120  1  0
 35121  1  0
 38122  1  0
 39123  1  6
 40124  1  0
 40125  1  0
 42126  1  0
 43127  1  0
 45128  1  0
 46129  1  0
 47130  1  0
 50131  1  0
 51132  1  1
 52133  1  0
 52134  1  0
 54135  1  0
 55136  1  0
 56137  1  0
 57138  1  0
 58139  1  0
 61140  1  0
 62141  1  1
 63142  1  0
 63143  1  0
 64144  1  0
 64145  1  0
 66146  1  0
 66147  1  0
 70148  1  0
 71149  1  6
 72150  1  0
 72151  1  0
 74152  1  0
 74153  1  0
 78154  1  0
 81155  1  0
 82156  1  0
 82157  1  0
 84158  1  0
 84159  1  0
M  END
$$$$
