
     RDKit          3D

 79 82  0  0  0  0  0  0  0  0999 V2000
   -0.5918    0.4139   -1.1322 C   0  0  2  0  0  0  0  0  0  0  0  0
    0.2514    0.0972   -2.3591 C   0  0  0  0  0  0  0  0  0  0  0  0
    1.6846    0.0211   -1.8141 C   0  0  0  0  0  0  0  0  0  0  0  0
    1.5704   -0.0378   -0.2667 C   0  0  2  0  0  0  0  0  0  0  0  0
    2.7372   -0.8233    0.4326 C   0  0  2  0  0  0  0  0  0  0  0  0
    2.9013   -2.3145    0.0541 C   0  0  0  0  0  0  0  0  0  0  0  0
    2.7077   -0.6426    1.9724 C   0  0  0  0  0  0  0  0  0  0  0  0
    4.0459   -0.9532    2.6644 C   0  0  0  0  0  0  0  0  0  0  0  0
    5.1085    0.0435    2.3025 C   0  0  0  0  0  0  0  0  0  0  0  0
    5.1093    1.1767    2.8559 O   0  0  0  0  0  0  0  0  0  0  0  0
    6.0931   -0.2772    1.3115 N   0  0  0  0  0  0  0  0  0  0  0  0
    7.1058    0.6951    0.9003 C   0  0  0  0  0  0  0  0  0  0  0  0
    8.0752    0.1002   -0.1267 C   0  0  0  0  0  0  0  0  0  0  0  0
    9.2301   -1.0395    0.6268 S   0  0  0  0  0  6  0  0  0  0  0  0
    8.4147   -2.3192    1.3530 O   0  0  0  0  0  0  0  0  0  0  0  0
   10.0585   -0.3192    1.6543 O   0  0  0  0  0  0  0  0  0  0  0  0
   10.1411   -1.5848   -0.4360 O   0  0  0  0  0  0  0  0  0  0  0  0
    0.0711   -0.3692    0.0151 C   0  0  2  0  0  0  0  0  0  0  0  0
   -0.1929   -1.9019   -0.0556 C   0  0  0  0  0  0  0  0  0  0  0  0
   -0.5006    0.2134    1.3296 C   0  0  0  0  0  0  0  0  0  0  0  0
   -2.0387    0.0768    1.3821 C   0  0  0  0  0  0  0  0  0  0  0  0
   -2.7757    0.6698    0.1325 C   0  0  1  0  0  0  0  0  0  0  0  0
   -2.1256    0.2325   -1.2249 C   0  0  1  0  0  0  0  0  0  0  0  0
   -2.7003    1.0571   -2.4175 C   0  0  1  0  0  0  0  0  0  0  0  0
   -2.7925    0.2623   -3.5749 O   0  0  0  0  0  0  0  0  0  0  0  0
   -4.0468    1.7385   -2.1113 C   0  0  0  0  0  0  0  0  0  0  0  0
   -4.9890    0.8696   -1.2531 C   0  0  2  0  0  0  0  0  0  0  0  0
   -6.3321    1.6368   -1.1075 C   0  0  0  0  0  0  0  0  0  0  0  0
   -7.2213    1.0563   -0.0018 C   0  0  2  0  0  0  0  0  0  0  0  0
   -8.4545    1.7300    0.0484 O   0  0  0  0  0  0  0  0  0  0  0  0
   -6.5233    1.0894    1.3775 C   0  0  0  0  0  0  0  0  0  0  0  0
   -4.9895    1.2328    1.2944 C   0  0  0  0  0  0  0  0  0  0  0  0
   -4.3437    0.4199    0.1297 C   0  0  2  0  0  0  0  0  0  0  0  0
   -4.6457   -1.0929    0.3591 C   0  0  0  0  0  0  0  0  0  0  0  0
   -0.4314    1.5053   -0.9424 H   0  0  0  0  0  0  0  0  0  0  0  0
    0.1633    0.8900   -3.1331 H   0  0  0  0  0  0  0  0  0  0  0  0
   -0.0532   -0.8772   -2.7997 H   0  0  0  0  0  0  0  0  0  0  0  0
    2.1991   -0.8517   -2.2580 H   0  0  0  0  0  0  0  0  0  0  0  0
    2.2543    0.9282   -2.1152 H   0  0  0  0  0  0  0  0  0  0  0  0
    1.7144    1.0185    0.0647 H   0  0  0  0  0  0  0  0  0  0  0  0
    3.6565   -0.3196    0.0611 H   0  0  0  0  0  0  0  0  0  0  0  0
    2.6264   -2.5325   -0.9930 H   0  0  0  0  0  0  0  0  0  0  0  0
    3.9659   -2.6090    0.1663 H   0  0  0  0  0  0  0  0  0  0  0  0
    2.3162   -2.9796    0.7191 H   0  0  0  0  0  0  0  0  0  0  0  0
    2.4164    0.3993    2.2311 H   0  0  0  0  0  0  0  0  0  0  0  0
    1.9400   -1.3170    2.4060 H   0  0  0  0  0  0  0  0  0  0  0  0
    3.8914   -0.9177    3.7646 H   0  0  0  0  0  0  0  0  0  0  0  0
    4.3822   -1.9834    2.4240 H   0  0  0  0  0  0  0  0  0  0  0  0
    6.0546   -1.2164    0.8548 H   0  0  0  0  0  0  0  0  0  0  0  0
    6.5955    1.5700    0.4428 H   0  0  0  0  0  0  0  0  0  0  0  0
    7.6696    1.0513    1.7895 H   0  0  0  0  0  0  0  0  0  0  0  0
    7.5128   -0.4175   -0.9328 H   0  0  0  0  0  0  0  0  0  0  0  0
    8.6574    0.9243   -0.5910 H   0  0  0  0  0  0  0  0  0  0  0  0
    8.1815   -1.9978    2.2605 H   0  0  0  0  0  0  0  0  0  0  0  0
    0.1874   -2.3944    0.8605 H   0  0  0  0  0  0  0  0  0  0  0  0
    0.2806   -2.3611   -0.9461 H   0  0  0  0  0  0  0  0  0  0  0  0
   -1.2664   -2.1586   -0.0998 H   0  0  0  0  0  0  0  0  0  0  0  0
   -0.2310    1.2882    1.4293 H   0  0  0  0  0  0  0  0  0  0  0  0
   -0.0774   -0.3122    2.2082 H   0  0  0  0  0  0  0  0  0  0  0  0
   -2.3773    0.6032    2.2977 H   0  0  0  0  0  0  0  0  0  0  0  0
   -2.2828   -0.9924    1.5254 H   0  0  0  0  0  0  0  0  0  0  0  0
   -2.6152    1.7697    0.2110 H   0  0  0  0  0  0  0  0  0  0  0  0
   -2.3489   -0.8331   -1.4166 H   0  0  0  0  0  0  0  0  0  0  0  0
   -2.0051    1.8907   -2.6603 H   0  0  0  0  0  0  0  0  0  0  0  0
   -3.4703   -0.4424   -3.4055 H   0  0  0  0  0  0  0  0  0  0  0  0
   -4.5436    2.0028   -3.0716 H   0  0  0  0  0  0  0  0  0  0  0  0
   -3.8516    2.6969   -1.5799 H   0  0  0  0  0  0  0  0  0  0  0  0
   -5.2114   -0.0381   -1.8581 H   0  0  0  0  0  0  0  0  0  0  0  0
   -6.8826    1.5997   -2.0736 H   0  0  0  0  0  0  0  0  0  0  0  0
   -6.1398    2.7093   -0.8785 H   0  0  0  0  0  0  0  0  0  0  0  0
   -7.4441    0.0018   -0.2680 H   0  0  0  0  0  0  0  0  0  0  0  0
   -8.2685    2.6897    0.2243 H   0  0  0  0  0  0  0  0  0  0  0  0
   -6.7767    0.1579    1.9295 H   0  0  0  0  0  0  0  0  0  0  0  0
   -6.9119    1.9333    1.9885 H   0  0  0  0  0  0  0  0  0  0  0  0
   -4.5751    0.9233    2.2758 H   0  0  0  0  0  0  0  0  0  0  0  0
   -4.7429    2.3103    1.1671 H   0  0  0  0  0  0  0  0  0  0  0  0
   -5.7005   -1.3418    0.1352 H   0  0  0  0  0  0  0  0  0  0  0  0
   -4.0262   -1.7404   -0.2916 H   0  0  0  0  0  0  0  0  0  0  0  0
   -4.4740   -1.3873    1.4156 H   0  0  0  0  0  0  0  0  0  0  0  0
  1  2  1  0
  2  3  1  0
  3  4  1  0
  4  5  1  0
  5  6  1  0
  5  7  1  0
  7  8  1  0
  8  9  1  0
  9 10  2  0
  9 11  1  0
 11 12  1  0
 12 13  1  0
 13 14  1  0
 14 15  1  0
 14 16  2  0
 14 17  2  0
  4 18  1  0
 18 19  1  6
 18 20  1  0
 20 21  1  0
 21 22  1  0
 22 23  1  0
 23 24  1  0
 24 25  1  0
 24 26  1  0
 26 27  1  0
 27 28  1  0
 28 29  1  0
 29 30  1  0
 29 31  1  0
 31 32  1  0
 32 33  1  0
 33 34  1  1
 18  1  1  0
 33 22  1  0
 23  1  1  0
 33 27  1  0
  1 35  1  1
  2 36  1  0
  2 37  1  0
  3 38  1  0
  3 39  1  0
  4 40  1  1
  5 41  1  6
  6 42  1  0
  6 43  1  0
  6 44  1  0
  7 45  1  0
  7 46  1  0
  8 47  1  0
  8 48  1  0
 11 49  1  0
 12 50  1  0
 12 51  1  0
 13 52  1  0
 13 53  1  0
 15 54  1  0
 19 55  1  0
 19 56  1  0
 19 57  1  0
 20 58  1  0
 20 59  1  0
 21 60  1  0
 21 61  1  0
 22 62  1  1
 23 63  1  6
 24 64  1  6
 25 65  1  0
 26 66  1  0
 26 67  1  0
 27 68  1  6
 28 69  1  0
 28 70  1  0
 29 71  1  6
 30 72  1  0
 31 73  1  0
 31 74  1  0
 32 75  1  0
 32 76  1  0
 34 77  1  0
 34 78  1  0
 34 79  1  0
M  END
$$$$
