
     RDKit          3D

 39 38  0  0  0  0  0  0  0  0999 V2000
    3.9501   -0.6286   -1.3049 C   0  0  1  0  0  0  0  0  0  0  0  0
    4.3978   -0.4039   -2.7508 C   0  0  0  0  0  0  0  0  0  0  0  0
    5.0120   -0.2108   -0.3869 N   0  0  0  0  0  0  0  0  0  0  0  0
    6.1390   -1.0391   -0.0826 C   0  0  0  0  0  0  0  0  0  0  0  0
    6.2444   -2.1946   -0.5729 O   0  0  0  0  0  0  0  0  0  0  0  0
    2.7263    0.1275   -1.0235 N   0  0  0  0  0  0  0  0  0  0  0  0
    1.9874   -0.0577    0.1932 C   0  0  0  0  0  0  0  0  0  0  0  0
    2.3716   -0.9090    1.0421 O   0  0  0  0  0  0  0  0  0  0  0  0
    0.7456    0.7539    0.4616 C   0  0  2  0  0  0  0  0  0  0  0  0
    0.8958    1.5499    1.7601 C   0  0  0  0  0  0  0  0  0  0  0  0
   -0.4254   -0.1244    0.5411 N   0  0  0  0  0  0  0  0  0  0  0  0
   -1.7600    0.3510    0.3310 C   0  0  0  0  0  0  0  0  0  0  0  0
   -1.9597    1.5549    0.0137 O   0  0  0  0  0  0  0  0  0  0  0  0
   -2.8298   -0.5437    0.4833 O   0  0  0  0  0  0  0  0  0  0  0  0
   -4.2231   -0.2389    0.3185 C   0  0  0  0  0  0  0  0  0  0  0  0
   -5.0062   -1.5323    0.5911 C   0  0  0  0  0  0  0  0  0  0  0  0
   -4.6673    0.8341    1.3310 C   0  0  0  0  0  0  0  0  0  0  0  0
   -4.5111    0.2222   -1.1232 C   0  0  0  0  0  0  0  0  0  0  0  0
    3.7358   -1.7120   -1.1681 H   0  0  0  0  0  0  0  0  0  0  0  0
    4.6356    0.6683   -2.9191 H   0  0  0  0  0  0  0  0  0  0  0  0
    3.5904   -0.7099   -3.4495 H   0  0  0  0  0  0  0  0  0  0  0  0
    5.3012   -1.0109   -2.9711 H   0  0  0  0  0  0  0  0  0  0  0  0
    4.9779    0.7457    0.0330 H   0  0  0  0  0  0  0  0  0  0  0  0
    6.9114   -0.6701    0.5790 H   0  0  0  0  0  0  0  0  0  0  0  0
    2.3773    0.8225   -1.7225 H   0  0  0  0  0  0  0  0  0  0  0  0
    0.6046    1.4754   -0.3729 H   0  0  0  0  0  0  0  0  0  0  0  0
    0.0050    2.1938    1.9178 H   0  0  0  0  0  0  0  0  0  0  0  0
    1.7931    2.2031    1.7069 H   0  0  0  0  0  0  0  0  0  0  0  0
    0.9965    0.8650    2.6294 H   0  0  0  0  0  0  0  0  0  0  0  0
   -0.3048   -1.1246    0.8209 H   0  0  0  0  0  0  0  0  0  0  0  0
   -4.8056   -1.8939    1.6227 H   0  0  0  0  0  0  0  0  0  0  0  0
   -6.1000   -1.3676    0.4805 H   0  0  0  0  0  0  0  0  0  0  0  0
   -4.6948   -2.3282   -0.1194 H   0  0  0  0  0  0  0  0  0  0  0  0
   -5.7689    0.9770    1.2907 H   0  0  0  0  0  0  0  0  0  0  0  0
   -4.3871    0.5278    2.3616 H   0  0  0  0  0  0  0  0  0  0  0  0
   -4.1935    1.8138    1.1174 H   0  0  0  0  0  0  0  0  0  0  0  0
   -4.1185   -0.5218   -1.8491 H   0  0  0  0  0  0  0  0  0  0  0  0
   -4.0380    1.2020   -1.3375 H   0  0  0  0  0  0  0  0  0  0  0  0
   -5.6049    0.3338   -1.2864 H   0  0  0  0  0  0  0  0  0  0  0  0
  1  2  1  0
  1  3  1  0
  3  4  1  0
  4  5  2  0
  1  6  1  0
  6  7  1  0
  7  8  2  0
  7  9  1  0
  9 10  1  0
  9 11  1  0
 11 12  1  0
 12 13  2  0
 12 14  1  0
 14 15  1  0
 15 16  1  0
 15 17  1  0
 15 18  1  0
  1 19  1  6
  2 20  1  0
  2 21  1  0
  2 22  1  0
  3 23  1  0
  4 24  1  0
  6 25  1  0
  9 26  1  6
 10 27  1  0
 10 28  1  0
 10 29  1  0
 11 30  1  0
 16 31  1  0
 16 32  1  0
 16 33  1  0
 17 34  1  0
 17 35  1  0
 17 36  1  0
 18 37  1  0
 18 38  1  0
 18 39  1  0
M  END
$$$$
