
     RDKit          3D

 23 24  0  0  0  0  0  0  0  0999 V2000
    3.6982    1.1250   -0.0130 C   0  0  0  0  0  0  0  0  0  0  0  0
    2.4679    0.2883    0.1031 C   0  0  0  0  0  0  0  0  0  0  0  0
    1.2778    0.7657   -0.0907 N   0  0  0  0  0  0  0  0  0  0  0  0
    0.3235   -0.2394    0.0805 N   0  0  0  0  0  0  0  0  0  0  0  0
    1.0208   -1.4388    0.3829 C   0  0  0  0  0  0  0  0  0  0  0  0
    0.4832   -2.5706    0.5080 O   0  0  0  0  0  0  0  0  0  0  0  0
    2.4807   -1.1777    0.4374 C   0  0  0  0  0  0  0  0  0  0  0  0
   -1.0901   -0.0417   -0.1024 C   0  0  0  0  0  0  0  0  0  0  0  0
   -1.5494    1.0210   -0.9003 C   0  0  0  0  0  0  0  0  0  0  0  0
   -2.9198    1.2307   -1.0815 C   0  0  0  0  0  0  0  0  0  0  0  0
   -3.8451    0.3884   -0.4612 C   0  0  0  0  0  0  0  0  0  0  0  0
   -3.4012   -0.6616    0.3457 C   0  0  0  0  0  0  0  0  0  0  0  0
   -2.0313   -0.8761    0.5290 C   0  0  0  0  0  0  0  0  0  0  0  0
    3.4342    2.1773   -0.2510 H   0  0  0  0  0  0  0  0  0  0  0  0
    4.2548    1.1006    0.9468 H   0  0  0  0  0  0  0  0  0  0  0  0
    4.3446    0.7230   -0.8206 H   0  0  0  0  0  0  0  0  0  0  0  0
    2.8823   -1.3543    1.4572 H   0  0  0  0  0  0  0  0  0  0  0  0
    3.0215   -1.7600   -0.3380 H   0  0  0  0  0  0  0  0  0  0  0  0
   -0.8466    1.6815   -1.3919 H   0  0  0  0  0  0  0  0  0  0  0  0
   -3.2643    2.0471   -1.7031 H   0  0  0  0  0  0  0  0  0  0  0  0
   -4.9057    0.5529   -0.6009 H   0  0  0  0  0  0  0  0  0  0  0  0
   -4.1194   -1.3061    0.8361 H   0  0  0  0  0  0  0  0  0  0  0  0
   -1.7165   -1.6753    1.1844 H   0  0  0  0  0  0  0  0  0  0  0  0
  1  2  1  0
  2  3  2  0
  3  4  1  0
  4  5  1  0
  5  6  2  0
  5  7  1  0
  4  8  1  0
  8  9  2  0
  9 10  1  0
 10 11  2  0
 11 12  1  0
 12 13  2  0
  7  2  1  0
 13  8  1  0
  1 14  1  0
  1 15  1  0
  1 16  1  0
  7 17  1  0
  7 18  1  0
  9 19  1  0
 10 20  1  0
 11 21  1  0
 12 22  1  0
 13 23  1  0
M  END
$$$$
