
     RDKit          3D

 28 29  0  0  0  0  0  0  0  0999 V2000
    0.8232    4.0528   -1.8608 N   0  0  0  0  0  0  0  0  0  0  0  0
    1.1863    2.7270   -1.4861 C   0  0  0  0  0  0  0  0  0  0  0  0
    2.3670    2.3264   -1.6738 O   0  0  0  0  0  0  0  0  0  0  0  0
    0.2232    1.8830   -0.9215 O   0  0  0  0  0  0  0  0  0  0  0  0
    0.4977    0.5543   -0.4701 C   0  0  1  0  0  0  0  0  0  0  0  0
    1.2610    0.5998    0.8658 C   0  0  0  0  0  0  0  0  0  0  0  0
    1.6115   -0.7449    1.3096 N   0  0  0  0  0  0  0  0  0  0  0  0
    2.6518   -1.4292    0.8669 N   0  0  0  0  0  0  0  0  0  0  0  0
    2.5499   -2.6151    1.4971 C   0  0  0  0  0  0  0  0  0  0  0  0
    1.4647   -2.6481    2.2972 N   0  0  0  0  0  0  0  0  0  0  0  0
    0.8941   -1.4631    2.1556 N   0  0  0  0  0  0  0  0  0  0  0  0
   -0.8131   -0.1955   -0.3119 C   0  0  0  0  0  0  0  0  0  0  0  0
   -0.9774   -1.5289   -0.7622 C   0  0  0  0  0  0  0  0  0  0  0  0
    0.3095   -2.4200   -1.5701 Cl  0  0  0  0  0  0  0  0  0  0  0  0
   -2.1968   -2.1883   -0.5618 C   0  0  0  0  0  0  0  0  0  0  0  0
   -3.2518   -1.5447    0.0864 C   0  0  0  0  0  0  0  0  0  0  0  0
   -3.0959   -0.2369    0.5439 C   0  0  0  0  0  0  0  0  0  0  0  0
   -1.8858    0.4327    0.3513 C   0  0  0  0  0  0  0  0  0  0  0  0
   -0.1528    4.3913   -1.7112 H   0  0  0  0  0  0  0  0  0  0  0  0
    1.5280    4.6953   -2.2860 H   0  0  0  0  0  0  0  0  0  0  0  0
    1.1366    0.0583   -1.2306 H   0  0  0  0  0  0  0  0  0  0  0  0
    0.6456    1.1030    1.6433 H   0  0  0  0  0  0  0  0  0  0  0  0
    2.1930    1.1920    0.7466 H   0  0  0  0  0  0  0  0  0  0  0  0
    3.2439   -3.4351    1.3734 H   0  0  0  0  0  0  0  0  0  0  0  0
   -2.3271   -3.2065   -0.9063 H   0  0  0  0  0  0  0  0  0  0  0  0
   -4.1901   -2.0626    0.2382 H   0  0  0  0  0  0  0  0  0  0  0  0
   -3.9129    0.2585    1.0525 H   0  0  0  0  0  0  0  0  0  0  0  0
   -1.7835    1.4443    0.7245 H   0  0  0  0  0  0  0  0  0  0  0  0
  1  2  1  0
  2  3  2  0
  2  4  1  0
  4  5  1  0
  5  6  1  0
  6  7  1  0
  7  8  1  0
  8  9  2  0
  9 10  1  0
 10 11  2  0
  5 12  1  0
 12 13  2  0
 13 14  1  0
 13 15  1  0
 15 16  2  0
 16 17  1  0
 17 18  2  0
 11  7  1  0
 18 12  1  0
  1 19  1  0
  1 20  1  0
  5 21  1  6
  6 22  1  0
  6 23  1  0
  9 24  1  0
 15 25  1  0
 16 26  1  0
 17 27  1  0
 18 28  1  0
M  END
$$$$
