
     RDKit          3D

 21 21  0  0  0  0  0  0  0  0999 V2000
   -0.1687    2.4754    0.5169 C   0  0  0  0  0  0  0  0  0  0  0  0
   -0.7458    1.0985    0.6310 C   0  0  0  0  0  0  0  0  0  0  0  0
   -1.6733    0.7794    1.5601 N   0  0  0  0  0  0  0  0  0  0  0  0
   -1.9367   -0.5227    1.3417 C   0  0  0  0  0  0  0  0  0  0  0  0
   -1.1717   -0.9692    0.2856 C   0  0  0  0  0  0  0  0  0  0  0  0
   -0.4176    0.0566   -0.1726 N   0  0  0  0  0  0  0  0  0  0  0  0
    0.5978    0.0515   -1.2340 C   0  0  0  0  0  0  0  0  0  0  0  0
    1.8975   -0.5984   -0.7502 C   0  0  0  0  0  0  0  0  0  0  0  0
    2.4937    0.1755    0.2553 O   0  0  0  0  0  0  0  0  0  0  0  0
   -1.1815   -2.3146   -0.2228 N   0  0  0  0  0  4  0  0  0  0  0  0
   -0.5025   -2.6576   -1.3673 O   0  0  0  0  0  1  0  0  0  0  0  0
   -1.8587   -3.1889    0.3558 O   0  0  0  0  0  0  0  0  0  0  0  0
    0.9366    2.4315    0.6000 H   0  0  0  0  0  0  0  0  0  0  0  0
   -0.4510    2.9188   -0.4604 H   0  0  0  0  0  0  0  0  0  0  0  0
   -0.5596    3.1239    1.3290 H   0  0  0  0  0  0  0  0  0  0  0  0
   -2.6422   -1.1052    1.9191 H   0  0  0  0  0  0  0  0  0  0  0  0
    0.2127   -0.4784   -2.1285 H   0  0  0  0  0  0  0  0  0  0  0  0
    0.8155    1.0875   -1.5698 H   0  0  0  0  0  0  0  0  0  0  0  0
    1.7118   -1.6349   -0.3893 H   0  0  0  0  0  0  0  0  0  0  0  0
    2.6019   -0.6644   -1.6058 H   0  0  0  0  0  0  0  0  0  0  0  0
    2.0418   -0.0641    1.1062 H   0  0  0  0  0  0  0  0  0  0  0  0
  1  2  1  0
  2  3  2  0
  3  4  1  0
  4  5  2  0
  5  6  1  0
  6  7  1  0
  7  8  1  0
  8  9  1  0
  5 10  1  0
 10 11  1  0
 10 12  2  0
  6  2  1  0
  1 13  1  0
  1 14  1  0
  1 15  1  0
  4 16  1  0
  7 17  1  0
  7 18  1  0
  8 19  1  0
  8 20  1  0
  9 21  1  0
M  CHG  2  10   1  11  -1
M  END
$$$$
