
     RDKit          3D

 75 77  0  0  0  0  0  0  0  0999 V2000
    5.4803    2.1994    0.8975 C   0  0  0  0  0  0  0  0  0  0  0  0
    6.5517    1.6163   -0.0389 C   0  0  0  0  0  0  0  0  0  0  0  0
    6.3066    2.0998   -1.4766 C   0  0  0  0  0  0  0  0  0  0  0  0
    6.6792    0.0641    0.0162 C   0  0  1  0  0  0  0  0  0  0  0  0
    7.2244   -0.4454    1.3607 C   0  0  0  0  0  0  0  0  0  0  0  0
    5.4186   -0.6684   -0.4036 C   0  0  0  0  0  0  0  0  0  0  0  0
    4.3399   -0.8039    0.3868 C   0  0  0  0  0  0  0  0  0  0  0  0
    3.1062   -1.5455   -0.0839 C   0  0  1  0  0  0  0  0  0  0  0  0
    3.3472   -3.0510    0.0979 C   0  0  0  0  0  0  0  0  0  0  0  0
    1.8477   -1.0487    0.6959 C   0  0  1  0  0  0  0  0  0  0  0  0
    1.6537    0.4858    0.5762 C   0  0  0  0  0  0  0  0  0  0  0  0
    0.1437    0.7536    0.5715 C   0  0  0  0  0  0  0  0  0  0  0  0
   -0.4801   -0.5946    0.9173 C   0  0  1  0  0  0  0  0  0  0  0  0
   -1.9220   -0.8828    0.5508 C   0  0  0  0  0  0  0  0  0  0  0  0
   -2.3548   -2.3351    0.6804 C   0  0  0  0  0  0  0  0  0  0  0  0
   -1.3095   -3.1984    1.4224 C   0  0  0  0  0  0  0  0  0  0  0  0
    0.1436   -3.0460    0.8978 C   0  0  0  0  0  0  0  0  0  0  0  0
    0.4632   -1.6398    0.2925 C   0  0  2  0  0  0  0  0  0  0  0  0
    0.3093   -1.6941   -1.2617 C   0  0  0  0  0  0  0  0  0  0  0  0
   -2.7810    0.0970    0.2028 C   0  0  0  0  0  0  0  0  0  0  0  0
   -4.1875   -0.1564   -0.2046 C   0  0  0  0  0  0  0  0  0  0  0  0
   -5.0990    0.8134   -0.4488 C   0  0  0  0  0  0  0  0  0  0  0  0
   -4.6783    2.2769   -0.4020 C   0  0  0  0  0  0  0  0  0  0  0  0
   -5.7898    3.2867   -0.7223 C   0  0  1  0  0  0  0  0  0  0  0  0
   -5.2267    4.5084   -1.1237 O   0  0  0  0  0  0  0  0  0  0  0  0
   -6.6859    2.7598   -1.8377 C   0  0  0  0  0  0  0  0  0  0  0  0
   -7.4384    1.5380   -1.3270 C   0  0  0  0  0  0  0  0  0  0  0  0
   -6.4983    0.3821   -0.9061 C   0  0  2  0  0  0  0  0  0  0  0  0
   -7.1959   -0.4647    0.1739 C   0  0  0  0  0  0  0  0  0  0  0  0
    4.4600    1.9276    0.5576 H   0  0  0  0  0  0  0  0  0  0  0  0
    5.6275    1.8545    1.9405 H   0  0  0  0  0  0  0  0  0  0  0  0
    5.5514    3.3081    0.9018 H   0  0  0  0  0  0  0  0  0  0  0  0
    7.5295    2.0429    0.2787 H   0  0  0  0  0  0  0  0  0  0  0  0
    5.3264    1.7371   -1.8537 H   0  0  0  0  0  0  0  0  0  0  0  0
    7.1092    1.7312   -2.1503 H   0  0  0  0  0  0  0  0  0  0  0  0
    6.3119    3.2102   -1.5138 H   0  0  0  0  0  0  0  0  0  0  0  0
    7.4561   -0.2110   -0.7322 H   0  0  0  0  0  0  0  0  0  0  0  0
    8.1976    0.0405    1.5857 H   0  0  0  0  0  0  0  0  0  0  0  0
    7.3920   -1.5425    1.3081 H   0  0  0  0  0  0  0  0  0  0  0  0
    6.5273   -0.2400    2.1975 H   0  0  0  0  0  0  0  0  0  0  0  0
    5.4068   -1.1199   -1.3924 H   0  0  0  0  0  0  0  0  0  0  0  0
    4.3450   -0.3812    1.3865 H   0  0  0  0  0  0  0  0  0  0  0  0
    2.9707   -1.3342   -1.1669 H   0  0  0  0  0  0  0  0  0  0  0  0
    2.5568   -3.6423   -0.4013 H   0  0  0  0  0  0  0  0  0  0  0  0
    4.3111   -3.3486   -0.3680 H   0  0  0  0  0  0  0  0  0  0  0  0
    3.3798   -3.3160    1.1764 H   0  0  0  0  0  0  0  0  0  0  0  0
    2.0140   -1.2690    1.7768 H   0  0  0  0  0  0  0  0  0  0  0  0
    2.0994    0.8792   -0.3644 H   0  0  0  0  0  0  0  0  0  0  0  0
    2.1344    1.0022    1.4359 H   0  0  0  0  0  0  0  0  0  0  0  0
   -0.1307    1.5262    1.3227 H   0  0  0  0  0  0  0  0  0  0  0  0
   -0.1747    1.0952   -0.4376 H   0  0  0  0  0  0  0  0  0  0  0  0
   -0.4237   -0.6776    2.0292 H   0  0  0  0  0  0  0  0  0  0  0  0
   -2.5427   -2.7617   -0.3276 H   0  0  0  0  0  0  0  0  0  0  0  0
   -3.3003   -2.3916    1.2624 H   0  0  0  0  0  0  0  0  0  0  0  0
   -1.3284   -2.9162    2.4984 H   0  0  0  0  0  0  0  0  0  0  0  0
   -1.6120   -4.2665    1.3673 H   0  0  0  0  0  0  0  0  0  0  0  0
    0.8309   -3.2688    1.7420 H   0  0  0  0  0  0  0  0  0  0  0  0
    0.3179   -3.8425    0.1429 H   0  0  0  0  0  0  0  0  0  0  0  0
    0.9684   -2.4709   -1.6995 H   0  0  0  0  0  0  0  0  0  0  0  0
   -0.7239   -1.9508   -1.5669 H   0  0  0  0  0  0  0  0  0  0  0  0
    0.5708   -0.7269   -1.7381 H   0  0  0  0  0  0  0  0  0  0  0  0
   -2.4266    1.1162    0.2140 H   0  0  0  0  0  0  0  0  0  0  0  0
   -4.4921   -1.1850   -0.3408 H   0  0  0  0  0  0  0  0  0  0  0  0
   -4.2830    2.5134    0.6101 H   0  0  0  0  0  0  0  0  0  0  0  0
   -3.8570    2.4212   -1.1390 H   0  0  0  0  0  0  0  0  0  0  0  0
   -6.4108    3.4518    0.1906 H   0  0  0  0  0  0  0  0  0  0  0  0
   -4.8500    4.9314   -0.3080 H   0  0  0  0  0  0  0  0  0  0  0  0
   -6.0842    2.4965   -2.7360 H   0  0  0  0  0  0  0  0  0  0  0  0
   -7.4207    3.5430   -2.1259 H   0  0  0  0  0  0  0  0  0  0  0  0
   -8.1265    1.1793   -2.1237 H   0  0  0  0  0  0  0  0  0  0  0  0
   -8.0785    1.8562   -0.4727 H   0  0  0  0  0  0  0  0  0  0  0  0
   -6.3620   -0.2630   -1.8035 H   0  0  0  0  0  0  0  0  0  0  0  0
   -7.2686    0.1057    1.1250 H   0  0  0  0  0  0  0  0  0  0  0  0
   -6.6464   -1.4090    0.3656 H   0  0  0  0  0  0  0  0  0  0  0  0
   -8.2202   -0.7408   -0.1571 H   0  0  0  0  0  0  0  0  0  0  0  0
  1  2  1  0
  2  3  1  0
  2  4  1  0
  4  5  1  0
  4  6  1  0
  6  7  2  0
  7  8  1  0
  8  9  1  0
  8 10  1  0
 10 11  1  0
 11 12  1  0
 12 13  1  0
 13 14  1  0
 14 15  1  0
 15 16  1  0
 16 17  1  0
 17 18  1  0
 18 19  1  6
 14 20  2  0
 20 21  1  0
 21 22  2  0
 22 23  1  0
 23 24  1  0
 24 25  1  0
 24 26  1  0
 26 27  1  0
 27 28  1  0
 28 29  1  0
 18 10  1  0
 28 22  1  0
 18 13  1  0
  1 30  1  0
  1 31  1  0
  1 32  1  0
  2 33  1  0
  3 34  1  0
  3 35  1  0
  3 36  1  0
  4 37  1  6
  5 38  1  0
  5 39  1  0
  5 40  1  0
  6 41  1  0
  7 42  1  0
  8 43  1  6
  9 44  1  0
  9 45  1  0
  9 46  1  0
 10 47  1  1
 11 48  1  0
 11 49  1  0
 12 50  1  0
 12 51  1  0
 13 52  1  1
 15 53  1  0
 15 54  1  0
 16 55  1  0
 16 56  1  0
 17 57  1  0
 17 58  1  0
 19 59  1  0
 19 60  1  0
 19 61  1  0
 20 62  1  0
 21 63  1  0
 23 64  1  0
 23 65  1  0
 24 66  1  1
 25 67  1  0
 26 68  1  0
 26 69  1  0
 27 70  1  0
 27 71  1  0
 28 72  1  6
 29 73  1  0
 29 74  1  0
 29 75  1  0
M  END
$$$$
