
     RDKit          3D

 30 30  0  0  0  0  0  0  0  0999 V2000
   -2.1522   -0.0130    0.7272 N   0  0  0  0  0  0  0  0  0  0  0  0
   -0.7849    0.2975    0.2995 C   0  0  1  0  0  0  0  0  0  0  0  0
    0.0297    0.6180    1.4833 N   0  0  0  0  0  0  0  0  0  0  0  0
    1.4099    0.9591    1.1106 C   0  0  0  0  0  0  0  0  0  0  0  0
    2.1085   -0.2178    0.3928 C   0  0  2  0  0  0  0  0  0  0  0  0
    3.5565    0.1408    0.0054 C   0  0  0  0  0  0  0  0  0  0  0  0
    4.3307    0.3910    1.1479 O   0  0  0  0  0  0  0  0  0  0  0  0
    1.2931   -0.6887   -0.8383 C   0  0  2  0  0  0  0  0  0  0  0  0
    1.4332    0.1853   -1.9349 O   0  0  0  0  0  0  0  0  0  0  0  0
   -0.1917   -0.9128   -0.4647 C   0  0  2  0  0  0  0  0  0  0  0  0
   -0.9546   -1.2291   -1.6035 O   0  0  0  0  0  0  0  0  0  0  0  0
   -3.3145    0.4140    0.0021 C   0  0  0  0  0  0  0  0  0  0  0  0
   -4.6706   -0.0312    0.4430 C   0  0  0  0  0  0  0  0  0  0  0  0
   -3.2015    1.1406   -1.0221 O   0  0  0  0  0  0  0  0  0  0  0  0
   -2.2840   -0.6792    1.5222 H   0  0  0  0  0  0  0  0  0  0  0  0
   -0.8040    1.1905   -0.3634 H   0  0  0  0  0  0  0  0  0  0  0  0
    0.0510   -0.2082    2.1275 H   0  0  0  0  0  0  0  0  0  0  0  0
    1.4149    1.8733    0.4780 H   0  0  0  0  0  0  0  0  0  0  0  0
    1.9709    1.2087    2.0372 H   0  0  0  0  0  0  0  0  0  0  0  0
    2.1536   -1.0709    1.1074 H   0  0  0  0  0  0  0  0  0  0  0  0
    3.5660    1.0504   -0.6324 H   0  0  0  0  0  0  0  0  0  0  0  0
    4.0115   -0.6876   -0.5848 H   0  0  0  0  0  0  0  0  0  0  0  0
    4.5276   -0.4918    1.5572 H   0  0  0  0  0  0  0  0  0  0  0  0
    1.7036   -1.6726   -1.1559 H   0  0  0  0  0  0  0  0  0  0  0  0
    1.0895    1.0758   -1.6712 H   0  0  0  0  0  0  0  0  0  0  0  0
   -0.2337   -1.7935    0.2144 H   0  0  0  0  0  0  0  0  0  0  0  0
   -1.0204   -0.4117   -2.1626 H   0  0  0  0  0  0  0  0  0  0  0  0
   -4.7842    0.1386    1.5341 H   0  0  0  0  0  0  0  0  0  0  0  0
   -4.7924   -1.1128    0.2266 H   0  0  0  0  0  0  0  0  0  0  0  0
   -5.4612    0.5373   -0.0914 H   0  0  0  0  0  0  0  0  0  0  0  0
  1  2  1  0
  2  3  1  0
  3  4  1  0
  4  5  1  0
  5  6  1  0
  6  7  1  0
  5  8  1  0
  8  9  1  0
  8 10  1  0
 10 11  1  0
  1 12  1  0
 12 13  1  0
 12 14  2  0
 10  2  1  0
  1 15  1  0
  2 16  1  6
  3 17  1  0
  4 18  1  0
  4 19  1  0
  5 20  1  1
  6 21  1  0
  6 22  1  0
  7 23  1  0
  8 24  1  6
  9 25  1  0
 10 26  1  1
 11 27  1  0
 13 28  1  0
 13 29  1  0
 13 30  1  0
M  END
$$$$
