
     RDKit          3D

 60 65  0  0  0  0  0  0  0  0999 V2000
   -1.8541    1.6216    0.0431 C   0  0  1  0  0  0  0  0  0  0  0  0
   -1.3452    1.5382   -1.3787 C   0  0  0  0  0  0  0  0  0  0  0  0
   -0.2316    0.8375   -1.6375 C   0  0  0  0  0  0  0  0  0  0  0  0
    0.5623    0.2120   -0.5121 C   0  0  2  0  0  0  0  0  0  0  0  0
    1.4862   -0.7106   -1.0663 O   0  0  0  0  0  0  0  0  0  0  0  0
    2.6961   -0.7332   -0.3320 C   0  0  2  0  0  0  0  0  0  0  0  0
    3.4628    0.4122   -0.6584 O   0  0  0  0  0  0  0  0  0  0  0  0
    4.5347    0.5714    0.2606 C   0  0  1  0  0  0  0  0  0  0  0  0
    5.3505   -0.7430    0.4762 C   0  0  1  0  0  0  0  0  0  0  0  0
    5.0449   -1.2719    1.7427 O   0  0  0  0  0  0  0  0  0  0  0  0
    5.0140   -1.7805   -0.6140 C   0  0  2  0  0  0  0  0  0  0  0  0
    5.5122   -1.3222   -1.8458 O   0  0  0  0  0  0  0  0  0  0  0  0
    3.4815   -2.0079   -0.7137 C   0  0  1  0  0  0  0  0  0  0  0  0
    3.0904   -3.0569    0.1355 O   0  0  0  0  0  0  0  0  0  0  0  0
    5.4297    1.6637   -0.2477 C   0  0  0  0  0  0  0  0  0  0  0  0
    5.7326    1.7421   -1.6040 O   0  0  0  0  0  0  0  0  0  0  0  0
    5.9425    2.4860    0.5581 O   0  0  0  0  0  0  0  0  0  0  0  0
   -0.3605   -0.5003    0.5177 C   0  0  2  0  0  0  0  0  0  0  0  0
   -0.7191   -1.8088    0.0537 O   0  0  0  0  0  0  0  0  0  0  0  0
   -2.0614   -1.8593   -0.2564 C   0  0  0  0  0  0  0  0  0  0  0  0
   -2.6820   -0.6890    0.0603 C   0  0  0  0  0  0  0  0  0  0  0  0
   -3.9099   -0.3464   -0.5127 C   0  0  0  0  0  0  0  0  0  0  0  0
   -4.2891    1.1116   -0.6455 C   0  0  0  0  0  0  0  0  0  0  0  0
   -3.3541    2.0567    0.1618 C   0  0  1  0  0  0  0  0  0  0  0  0
   -3.8396    2.0430    1.5744 N   0  0  0  0  0  0  0  0  0  0  0  0
   -4.5074    3.3050    1.9293 C   0  0  0  0  0  0  0  0  0  0  0  0
   -2.8240    1.6959    2.5904 C   0  0  0  0  0  0  0  0  0  0  0  0
   -2.0987    0.3782    2.2512 C   0  0  0  0  0  0  0  0  0  0  0  0
   -1.7320    0.2486    0.7395 C   0  0  2  0  0  0  0  0  0  0  0  0
   -4.6174   -1.3503   -1.2027 C   0  0  0  0  0  0  0  0  0  0  0  0
   -4.0451   -2.6287   -1.3740 C   0  0  0  0  0  0  0  0  0  0  0  0
   -2.7291   -2.8777   -0.9346 C   0  0  0  0  0  0  0  0  0  0  0  0
   -2.0918   -4.0873   -1.1978 O   0  0  0  0  0  0  0  0  0  0  0  0
   -1.2089    2.3641    0.5627 H   0  0  0  0  0  0  0  0  0  0  0  0
   -1.9067    1.9781   -2.1970 H   0  0  0  0  0  0  0  0  0  0  0  0
    0.0988    0.7202   -2.6655 H   0  0  0  0  0  0  0  0  0  0  0  0
    1.0679    1.0617    0.0079 H   0  0  0  0  0  0  0  0  0  0  0  0
    2.4802   -0.7672    0.7663 H   0  0  0  0  0  0  0  0  0  0  0  0
    4.1176    0.9176    1.2351 H   0  0  0  0  0  0  0  0  0  0  0  0
    6.4463   -0.5295    0.4360 H   0  0  0  0  0  0  0  0  0  0  0  0
    5.7521   -1.9346    1.9594 H   0  0  0  0  0  0  0  0  0  0  0  0
    5.5230   -2.7395   -0.3556 H   0  0  0  0  0  0  0  0  0  0  0  0
    5.5629   -2.1103   -2.4478 H   0  0  0  0  0  0  0  0  0  0  0  0
    3.2295   -2.2795   -1.7670 H   0  0  0  0  0  0  0  0  0  0  0  0
    3.3613   -3.9030   -0.3080 H   0  0  0  0  0  0  0  0  0  0  0  0
    6.3492    2.4636   -1.9578 H   0  0  0  0  0  0  0  0  0  0  0  0
    0.2061   -0.6158    1.4656 H   0  0  0  0  0  0  0  0  0  0  0  0
   -4.2360    1.3864   -1.7209 H   0  0  0  0  0  0  0  0  0  0  0  0
   -5.3447    1.2511   -0.3259 H   0  0  0  0  0  0  0  0  0  0  0  0
   -3.4350    3.0767   -0.2821 H   0  0  0  0  0  0  0  0  0  0  0  0
   -3.7876    4.1531    1.9116 H   0  0  0  0  0  0  0  0  0  0  0  0
   -4.9588    3.2308    2.9421 H   0  0  0  0  0  0  0  0  0  0  0  0
   -5.3333    3.5132    1.2153 H   0  0  0  0  0  0  0  0  0  0  0  0
   -3.3132    1.5744    3.5821 H   0  0  0  0  0  0  0  0  0  0  0  0
   -2.0790    2.5176    2.6909 H   0  0  0  0  0  0  0  0  0  0  0  0
   -1.1857    0.3478    2.8830 H   0  0  0  0  0  0  0  0  0  0  0  0
   -2.7305   -0.4781    2.5782 H   0  0  0  0  0  0  0  0  0  0  0  0
   -5.5735   -1.1274   -1.6592 H   0  0  0  0  0  0  0  0  0  0  0  0
   -4.5900   -3.3902   -1.9169 H   0  0  0  0  0  0  0  0  0  0  0  0
   -2.5606   -4.8312   -1.7013 H   0  0  0  0  0  0  0  0  0  0  0  0
  1  2  1  0
  2  3  2  0
  3  4  1  0
  4  5  1  0
  5  6  1  0
  6  7  1  0
  7  8  1  0
  8  9  1  0
  9 10  1  0
  9 11  1  0
 11 12  1  0
 11 13  1  0
 13 14  1  0
  8 15  1  0
 15 16  1  0
 15 17  2  0
  4 18  1  0
 18 19  1  0
 19 20  1  0
 20 21  2  0
 21 22  1  0
 22 23  1  0
 23 24  1  0
 24 25  1  0
 25 26  1  0
 25 27  1  0
 27 28  1  0
 29 28  1  1
 22 30  2  0
 30 31  1  0
 31 32  2  0
 32 33  1  0
 24  1  1  0
 29  1  1  0
 13  6  1  0
 29 18  1  0
 32 20  1  0
 29 21  1  0
  1 34  1  1
  2 35  1  0
  3 36  1  0
  4 37  1  1
  6 38  1  1
  8 39  1  1
  9 40  1  1
 10 41  1  0
 11 42  1  1
 12 43  1  0
 13 44  1  6
 14 45  1  0
 16 46  1  0
 18 47  1  1
 23 48  1  0
 23 49  1  0
 24 50  1  6
 26 51  1  0
 26 52  1  0
 26 53  1  0
 27 54  1  0
 27 55  1  0
 28 56  1  0
 28 57  1  0
 30 58  1  0
 31 59  1  0
 33 60  1  0
M  END
$$$$
