
     RDKit          3D

 27 28  0  0  0  0  0  0  0  0999 V2000
   -1.8357    1.4707    0.5162 N   0  0  0  0  0  0  0  0  0  0  0  0
   -2.3145    0.4775   -0.4483 C   0  0  1  0  0  0  0  0  0  0  0  0
   -1.1895    0.0631   -1.4176 C   0  0  0  0  0  0  0  0  0  0  0  0
    0.0013   -0.5303   -0.7145 C   0  0  0  0  0  0  0  0  0  0  0  0
    0.1790   -1.8691   -0.3764 C   0  0  0  0  0  0  0  0  0  0  0  0
    1.3419   -2.0375    0.2930 N   0  0  0  0  0  0  0  0  0  0  0  0
    1.8982   -0.8172    0.3843 C   0  0  0  0  0  0  0  0  0  0  0  0
    1.1093    0.1300   -0.2176 C   0  0  0  0  0  0  0  0  0  0  0  0
    1.4765    1.4760   -0.2522 C   0  0  0  0  0  0  0  0  0  0  0  0
    2.6906    1.8419    0.3579 C   0  0  0  0  0  0  0  0  0  0  0  0
    3.0854    3.1388    0.3476 F   0  0  0  0  0  0  0  0  0  0  0  0
    3.5009    0.8659    0.9799 C   0  0  0  0  0  0  0  0  0  0  0  0
    3.1054   -0.4840    0.9966 C   0  0  0  0  0  0  0  0  0  0  0  0
   -2.8862   -0.7214    0.2608 C   0  0  0  0  0  0  0  0  0  0  0  0
   -3.8969   -1.4609   -0.3454 O   0  0  0  0  0  0  0  0  0  0  0  0
   -2.4271   -1.0853    1.3775 O   0  0  0  0  0  0  0  0  0  0  0  0
   -1.5528    2.3285   -0.0112 H   0  0  0  0  0  0  0  0  0  0  0  0
   -2.6412    1.7599    1.1183 H   0  0  0  0  0  0  0  0  0  0  0  0
   -3.1311    0.9340   -1.0527 H   0  0  0  0  0  0  0  0  0  0  0  0
   -0.8656    0.9484   -2.0057 H   0  0  0  0  0  0  0  0  0  0  0  0
   -1.5857   -0.6765   -2.1473 H   0  0  0  0  0  0  0  0  0  0  0  0
   -0.5105   -2.6728   -0.6000 H   0  0  0  0  0  0  0  0  0  0  0  0
    1.7231   -2.9346    0.6676 H   0  0  0  0  0  0  0  0  0  0  0  0
    0.8545    2.2182   -0.7343 H   0  0  0  0  0  0  0  0  0  0  0  0
    4.4329    1.1571    1.4466 H   0  0  0  0  0  0  0  0  0  0  0  0
    3.7198   -1.2385    1.4706 H   0  0  0  0  0  0  0  0  0  0  0  0
   -4.2819   -2.2819    0.1061 H   0  0  0  0  0  0  0  0  0  0  0  0
  1  2  1  0
  2  3  1  0
  3  4  1  0
  4  5  2  0
  5  6  1  0
  6  7  1  0
  7  8  2  0
  8  9  1  0
  9 10  2  0
 10 11  1  0
 10 12  1  0
 12 13  2  0
  2 14  1  0
 14 15  1  0
 14 16  2  0
  8  4  1  0
 13  7  1  0
  1 17  1  0
  1 18  1  0
  2 19  1  6
  3 20  1  0
  3 21  1  0
  5 22  1  0
  6 23  1  0
  9 24  1  0
 12 25  1  0
 13 26  1  0
 15 27  1  0
M  END
$$$$
