
     RDKit          3D

 56 57  0  0  0  0  0  0  0  0999 V2000
    1.4674   -0.7461    2.2610 C   0  0  0  0  0  0  0  0  0  0  0  0
    0.3303   -1.1387    1.4084 N   0  0  0  0  0  0  0  0  0  0  0  0
   -0.4021    0.0215    0.8596 C   0  0  0  0  0  0  0  0  0  0  0  0
   -1.2705    0.6768    1.9394 C   0  0  0  0  0  0  0  0  0  0  0  0
   -2.1074    1.6845    1.3710 O   0  0  0  0  0  0  0  0  0  0  0  0
   -3.2746    1.4522    0.6243 C   0  0  0  0  0  0  0  0  0  0  0  0
   -3.8130    0.1662    0.4288 C   0  0  0  0  0  0  0  0  0  0  0  0
   -4.9787   -0.0058   -0.3240 C   0  0  0  0  0  0  0  0  0  0  0  0
   -5.6338    1.1034   -0.8902 C   0  0  0  0  0  0  0  0  0  0  0  0
   -6.8343    0.9675   -1.6731 N   0  0  0  0  0  0  0  0  0  0  0  0
   -7.7394   -0.5043   -1.8427 S   0  0  0  0  0  6  0  0  0  0  0  0
   -8.3998   -1.0056   -0.2671 C   0  0  0  0  0  0  0  0  0  0  0  0
   -6.8654   -1.5847   -2.4150 O   0  0  0  0  0  0  0  0  0  0  0  0
   -8.8849   -0.2628   -2.7847 O   0  0  0  0  0  0  0  0  0  0  0  0
   -5.0910    2.3822   -0.6924 C   0  0  0  0  0  0  0  0  0  0  0  0
   -3.9257    2.5531    0.0593 C   0  0  0  0  0  0  0  0  0  0  0  0
    0.6845   -2.1497    0.3831 C   0  0  0  0  0  0  0  0  0  0  0  0
    1.4770   -1.6152   -0.8339 C   0  0  0  0  0  0  0  0  0  0  0  0
    2.8861   -1.1963   -0.5009 C   0  0  0  0  0  0  0  0  0  0  0  0
    3.2793    0.1443   -0.6336 C   0  0  0  0  0  0  0  0  0  0  0  0
    4.5854    0.5337   -0.3235 C   0  0  0  0  0  0  0  0  0  0  0  0
    5.5287   -0.4157    0.1125 C   0  0  0  0  0  0  0  0  0  0  0  0
    6.8820   -0.0547    0.4456 N   0  0  0  0  0  0  0  0  0  0  0  0
    7.5773    1.5146    0.1851 S   0  0  0  0  0  6  0  0  0  0  0  0
    7.6568    1.8705   -1.5577 C   0  0  0  0  0  0  0  0  0  0  0  0
    8.9745    1.5234    0.7379 O   0  0  0  0  0  0  0  0  0  0  0  0
    6.7706    2.5619    0.9000 O   0  0  0  0  0  0  0  0  0  0  0  0
    5.1331   -1.7571    0.2324 C   0  0  0  0  0  0  0  0  0  0  0  0
    3.8273   -2.1462   -0.0769 C   0  0  0  0  0  0  0  0  0  0  0  0
    2.0635    0.0707    1.8053 H   0  0  0  0  0  0  0  0  0  0  0  0
    2.1340   -1.6105    2.4684 H   0  0  0  0  0  0  0  0  0  0  0  0
    1.0888   -0.3941    3.2426 H   0  0  0  0  0  0  0  0  0  0  0  0
   -1.0683   -0.3080    0.0332 H   0  0  0  0  0  0  0  0  0  0  0  0
    0.2987    0.7766    0.4392 H   0  0  0  0  0  0  0  0  0  0  0  0
   -0.6110    1.1665    2.6854 H   0  0  0  0  0  0  0  0  0  0  0  0
   -1.8789   -0.0787    2.4807 H   0  0  0  0  0  0  0  0  0  0  0  0
   -3.3412   -0.7101    0.8497 H   0  0  0  0  0  0  0  0  0  0  0  0
   -5.3522   -1.0090   -0.4594 H   0  0  0  0  0  0  0  0  0  0  0  0
   -7.2339    1.8164   -2.1327 H   0  0  0  0  0  0  0  0  0  0  0  0
   -9.0167   -1.9184   -0.3977 H   0  0  0  0  0  0  0  0  0  0  0  0
   -9.0315   -0.1914    0.1438 H   0  0  0  0  0  0  0  0  0  0  0  0
   -7.5760   -1.2209    0.4425 H   0  0  0  0  0  0  0  0  0  0  0  0
   -5.5745    3.2517   -1.1200 H   0  0  0  0  0  0  0  0  0  0  0  0
   -3.5244    3.5485    0.2020 H   0  0  0  0  0  0  0  0  0  0  0  0
   -0.2585   -2.5974    0.0004 H   0  0  0  0  0  0  0  0  0  0  0  0
    1.2329   -2.9951    0.8527 H   0  0  0  0  0  0  0  0  0  0  0  0
    1.5363   -2.4299   -1.5879 H   0  0  0  0  0  0  0  0  0  0  0  0
    0.9215   -0.7911   -1.3290 H   0  0  0  0  0  0  0  0  0  0  0  0
    2.5709    0.8934   -0.9649 H   0  0  0  0  0  0  0  0  0  0  0  0
    4.8408    1.5773   -0.4227 H   0  0  0  0  0  0  0  0  0  0  0  0
    7.5192   -0.7896    0.8269 H   0  0  0  0  0  0  0  0  0  0  0  0
    8.2487    1.0831   -2.0681 H   0  0  0  0  0  0  0  0  0  0  0  0
    8.1446    2.8548   -1.7127 H   0  0  0  0  0  0  0  0  0  0  0  0
    6.6366    1.8971   -1.9902 H   0  0  0  0  0  0  0  0  0  0  0  0
    5.8412   -2.5064    0.5635 H   0  0  0  0  0  0  0  0  0  0  0  0
    3.5500   -3.1887    0.0161 H   0  0  0  0  0  0  0  0  0  0  0  0
  1  2  1  0
  2  3  1  0
  3  4  1  0
  4  5  1  0
  5  6  1  0
  6  7  2  0
  7  8  1  0
  8  9  2  0
  9 10  1  0
 10 11  1  0
 11 12  1  0
 11 13  2  0
 11 14  2  0
  9 15  1  0
 15 16  2  0
  2 17  1  0
 17 18  1  0
 18 19  1  0
 19 20  2  0
 20 21  1  0
 21 22  2  0
 22 23  1  0
 23 24  1  0
 24 25  1  0
 24 26  2  0
 24 27  2  0
 22 28  1  0
 28 29  2  0
 16  6  1  0
 29 19  1  0
  1 30  1  0
  1 31  1  0
  1 32  1  0
  3 33  1  0
  3 34  1  0
  4 35  1  0
  4 36  1  0
  7 37  1  0
  8 38  1  0
 10 39  1  0
 12 40  1  0
 12 41  1  0
 12 42  1  0
 15 43  1  0
 16 44  1  0
 17 45  1  0
 17 46  1  0
 18 47  1  0
 18 48  1  0
 20 49  1  0
 21 50  1  0
 23 51  1  0
 25 52  1  0
 25 53  1  0
 25 54  1  0
 28 55  1  0
 29 56  1  0
M  END
$$$$
