
     RDKit          3D

 35 37  0  0  0  0  0  0  0  0999 V2000
    5.5747    0.9476    0.0113 C   0  0  0  0  0  0  0  0  0  0  0  0
    4.2957    0.1655   -0.0972 C   0  0  0  0  0  0  0  0  0  0  0  0
    3.0559    0.8108    0.0467 C   0  0  0  0  0  0  0  0  0  0  0  0
    1.8460    0.0934   -0.0591 C   0  0  0  0  0  0  0  0  0  0  0  0
    1.9080   -1.2906   -0.3165 C   0  0  0  0  0  0  0  0  0  0  0  0
    3.1382   -1.9340   -0.4643 C   0  0  0  0  0  0  0  0  0  0  0  0
    4.3330   -1.2141   -0.3578 C   0  0  0  0  0  0  0  0  0  0  0  0
    5.5573   -1.8650   -0.5103 O   0  0  0  0  0  0  0  0  0  0  0  0
    0.5361    0.7948    0.0989 C   0  0  0  0  0  0  0  0  0  0  0  0
    0.5292    2.0732    0.3371 N   0  0  0  0  0  0  0  0  0  0  0  0
   -0.6792    2.8091    0.4993 C   0  0  0  0  0  0  0  0  0  0  0  0
   -0.6384    4.0453    0.7289 O   0  0  0  0  0  0  0  0  0  0  0  0
   -1.9338    2.1426    0.4009 N   0  0  0  0  0  0  0  0  0  0  0  0
   -2.0244    0.8670    0.1653 C   0  0  0  0  0  0  0  0  0  0  0  0
   -0.7708    0.0266   -0.0164 C   0  0  0  0  0  0  0  0  0  0  0  0
   -3.3774    0.2409    0.0764 C   0  0  0  0  0  0  0  0  0  0  0  0
   -4.5384    1.0256    0.2448 C   0  0  0  0  0  0  0  0  0  0  0  0
   -5.8088    0.4477    0.1631 C   0  0  0  0  0  0  0  0  0  0  0  0
   -5.9429   -0.9182   -0.0871 C   0  0  0  0  0  0  0  0  0  0  0  0
   -4.8066   -1.7100   -0.2563 C   0  0  0  0  0  0  0  0  0  0  0  0
   -3.5327   -1.1393   -0.1760 C   0  0  0  0  0  0  0  0  0  0  0  0
    6.1090    0.9240   -0.9617 H   0  0  0  0  0  0  0  0  0  0  0  0
    6.2233    0.4999    0.7936 H   0  0  0  0  0  0  0  0  0  0  0  0
    5.3857    2.0079    0.2829 H   0  0  0  0  0  0  0  0  0  0  0  0
    3.0396    1.8760    0.2419 H   0  0  0  0  0  0  0  0  0  0  0  0
    1.0112   -1.8876   -0.4071 H   0  0  0  0  0  0  0  0  0  0  0  0
    3.1614   -2.9979   -0.6636 H   0  0  0  0  0  0  0  0  0  0  0  0
    5.6103   -2.8592   -0.6989 H   0  0  0  0  0  0  0  0  0  0  0  0
   -0.8102   -0.4409   -1.0234 H   0  0  0  0  0  0  0  0  0  0  0  0
   -0.7733   -0.7708    0.7571 H   0  0  0  0  0  0  0  0  0  0  0  0
   -4.4692    2.0882    0.4401 H   0  0  0  0  0  0  0  0  0  0  0  0
   -6.6909    1.0612    0.2943 H   0  0  0  0  0  0  0  0  0  0  0  0
   -6.9275   -1.3633   -0.1498 H   0  0  0  0  0  0  0  0  0  0  0  0
   -4.9123   -2.7697   -0.4504 H   0  0  0  0  0  0  0  0  0  0  0  0
   -2.6778   -1.7869   -0.3129 H   0  0  0  0  0  0  0  0  0  0  0  0
  1  2  1  0
  2  3  2  0
  3  4  1  0
  4  5  2  0
  5  6  1  0
  6  7  2  0
  7  8  1  0
  4  9  1  0
  9 10  2  0
 10 11  1  0
 11 12  2  0
 11 13  1  0
 13 14  2  0
 14 15  1  0
 14 16  1  0
 16 17  2  0
 17 18  1  0
 18 19  2  0
 19 20  1  0
 20 21  2  0
  7  2  1  0
 15  9  1  0
 21 16  1  0
  1 22  1  0
  1 23  1  0
  1 24  1  0
  3 25  1  0
  5 26  1  0
  6 27  1  0
  8 28  1  0
 15 29  1  0
 15 30  1  0
 17 31  1  0
 18 32  1  0
 19 33  1  0
 20 34  1  0
 21 35  1  0
M  END
$$$$
