
     RDKit          3D

 63 67  0  0  0  0  0  0  0  0999 V2000
    5.1983   -0.8345   -2.3747 O   0  0  0  0  0  0  0  0  0  0  0  0
    4.5742   -0.4659   -1.1662 C   0  0  0  0  0  0  0  0  0  0  0  0
    3.5730    0.6390   -1.4405 C   0  0  0  0  0  0  0  0  0  0  0  0
    3.9547    1.6914   -2.0233 O   0  0  0  0  0  0  0  0  0  0  0  0
    2.2353    0.4911   -1.0530 O   0  0  0  0  0  0  0  0  0  0  0  0
    1.2565    1.5244   -1.1691 C   0  0  1  0  0  0  0  0  0  0  0  0
   -0.1633    0.9178   -0.9836 C   0  0  0  0  0  0  0  0  0  0  0  0
   -0.8859    1.5560    0.1590 N   0  0  0  0  0  4  0  0  0  0  0  0
   -2.2232    0.9236    0.3858 C   0  0  0  0  0  0  0  0  0  0  0  0
   -3.2269    1.0290   -0.7890 C   0  0  0  0  0  0  0  0  0  0  0  0
   -4.5513    0.3429   -0.4485 C   0  0  0  0  0  0  0  0  0  0  0  0
   -4.3480   -1.0599   -0.2908 O   0  0  0  0  0  0  0  0  0  0  0  0
   -5.3591   -1.9773    0.0290 C   0  0  0  0  0  0  0  0  0  0  0  0
   -5.0129   -3.3280    0.1650 C   0  0  0  0  0  0  0  0  0  0  0  0
   -5.9855   -4.2807    0.4837 C   0  0  0  0  0  0  0  0  0  0  0  0
   -7.3139   -3.8896    0.6687 C   0  0  0  0  0  0  0  0  0  0  0  0
   -7.6711   -2.5453    0.5353 C   0  0  0  0  0  0  0  0  0  0  0  0
   -6.7009   -1.5894    0.2167 C   0  0  0  0  0  0  0  0  0  0  0  0
   -1.0064    3.0239   -0.0978 C   0  0  0  0  0  0  0  0  0  0  0  0
    0.3879    3.6855   -0.2548 C   0  0  0  0  0  0  0  0  0  0  0  0
    1.4842    2.6178   -0.1003 C   0  0  0  0  0  0  0  0  0  0  0  0
    1.3285    1.9870    1.2896 C   0  0  0  0  0  0  0  0  0  0  0  0
   -0.0778    1.3530    1.4039 C   0  0  0  0  0  0  0  0  0  0  0  0
    5.6474    0.0248   -0.2199 C   0  0  0  0  0  0  0  0  0  0  0  0
    5.5009    0.9629    0.8027 C   0  0  0  0  0  0  0  0  0  0  0  0
    6.6537    1.1268    1.5797 C   0  0  0  0  0  0  0  0  0  0  0  0
    7.7080    0.3106    1.1946 C   0  0  0  0  0  0  0  0  0  0  0  0
    7.2013   -0.6178   -0.1109 S   0  0  0  0  0  0  0  0  0  0  0  0
    3.8925   -1.6720   -0.5456 C   0  0  0  0  0  0  0  0  0  0  0  0
    3.3515   -1.7412    0.7381 C   0  0  0  0  0  0  0  0  0  0  0  0
    2.7208   -2.9596    1.0155 C   0  0  0  0  0  0  0  0  0  0  0  0
    2.7488   -3.8568   -0.0428 C   0  0  0  0  0  0  0  0  0  0  0  0
    3.5558   -3.1290   -1.3241 S   0  0  0  0  0  0  0  0  0  0  0  0
    4.4903   -1.0476   -3.0391 H   0  0  0  0  0  0  0  0  0  0  0  0
    1.3270    1.9780   -2.1842 H   0  0  0  0  0  0  0  0  0  0  0  0
   -0.7143    1.0749   -1.9351 H   0  0  0  0  0  0  0  0  0  0  0  0
   -0.0935   -0.1838   -0.8302 H   0  0  0  0  0  0  0  0  0  0  0  0
   -2.0858   -0.1567    0.6217 H   0  0  0  0  0  0  0  0  0  0  0  0
   -2.7050    1.3820    1.2801 H   0  0  0  0  0  0  0  0  0  0  0  0
   -2.8255    0.5490   -1.7040 H   0  0  0  0  0  0  0  0  0  0  0  0
   -3.4554    2.0908   -1.0113 H   0  0  0  0  0  0  0  0  0  0  0  0
   -4.9692    0.7745    0.4874 H   0  0  0  0  0  0  0  0  0  0  0  0
   -5.2699    0.5199   -1.2782 H   0  0  0  0  0  0  0  0  0  0  0  0
   -3.9856   -3.6393    0.0236 H   0  0  0  0  0  0  0  0  0  0  0  0
   -5.7091   -5.3220    0.5871 H   0  0  0  0  0  0  0  0  0  0  0  0
   -8.0662   -4.6276    0.9153 H   0  0  0  0  0  0  0  0  0  0  0  0
   -8.7006   -2.2435    0.6787 H   0  0  0  0  0  0  0  0  0  0  0  0
   -7.0034   -0.5558    0.1186 H   0  0  0  0  0  0  0  0  0  0  0  0
   -1.5603    3.5204    0.7312 H   0  0  0  0  0  0  0  0  0  0  0  0
   -1.5711    3.2172   -1.0347 H   0  0  0  0  0  0  0  0  0  0  0  0
    0.5219    4.4797    0.5123 H   0  0  0  0  0  0  0  0  0  0  0  0
    0.4746    4.1693   -1.2528 H   0  0  0  0  0  0  0  0  0  0  0  0
    2.4890    3.0805   -0.2074 H   0  0  0  0  0  0  0  0  0  0  0  0
    1.4641    2.7641    2.0740 H   0  0  0  0  0  0  0  0  0  0  0  0
    2.1116    1.2162    1.4525 H   0  0  0  0  0  0  0  0  0  0  0  0
    0.0399    0.2655    1.6189 H   0  0  0  0  0  0  0  0  0  0  0  0
   -0.5968    1.7991    2.2836 H   0  0  0  0  0  0  0  0  0  0  0  0
    4.5860    1.5076    0.9931 H   0  0  0  0  0  0  0  0  0  0  0  0
    6.7130    1.8157    2.4116 H   0  0  0  0  0  0  0  0  0  0  0  0
    8.6812    0.2705    1.6646 H   0  0  0  0  0  0  0  0  0  0  0  0
    3.4007   -0.9322    1.4538 H   0  0  0  0  0  0  0  0  0  0  0  0
    2.2484   -3.1784    1.9637 H   0  0  0  0  0  0  0  0  0  0  0  0
    2.3170   -4.8483   -0.0430 H   0  0  0  0  0  0  0  0  0  0  0  0
  1  2  1  0
  2  3  1  0
  3  4  2  0
  3  5  1  0
  5  6  1  0
  6  7  1  0
  7  8  1  0
  8  9  1  0
  9 10  1  0
 10 11  1  0
 11 12  1  0
 12 13  1  0
 13 14  2  0
 14 15  1  0
 15 16  2  0
 16 17  1  0
 17 18  2  0
  8 19  1  0
 19 20  1  0
 20 21  1  0
 21 22  1  0
 22 23  1  0
  2 24  1  0
 24 25  2  0
 25 26  1  0
 26 27  2  0
 27 28  1  0
  2 29  1  0
 29 30  2  0
 30 31  1  0
 31 32  2  0
 32 33  1  0
 21  6  1  0
 28 24  1  0
 33 29  1  0
 23  8  1  0
 18 13  1  0
  1 34  1  0
  6 35  1  6
  7 36  1  0
  7 37  1  0
  9 38  1  0
  9 39  1  0
 10 40  1  0
 10 41  1  0
 11 42  1  0
 11 43  1  0
 14 44  1  0
 15 45  1  0
 16 46  1  0
 17 47  1  0
 18 48  1  0
 19 49  1  0
 19 50  1  0
 20 51  1  0
 20 52  1  0
 21 53  1  0
 22 54  1  0
 22 55  1  0
 23 56  1  0
 23 57  1  0
 25 58  1  0
 26 59  1  0
 27 60  1  0
 30 61  1  0
 31 62  1  0
 32 63  1  0
M  CHG  1   8   1
M  END
$$$$
