
     RDKit          3D

 35 35  0  0  0  0  0  0  0  0999 V2000
   -0.6711    0.6792   -1.4544 C   0  0  1  0  0  0  0  0  0  0  0  0
   -1.5322    1.6475   -0.6150 C   0  0  0  0  0  0  0  0  0  0  0  0
   -2.4282    2.3470   -1.4388 O   0  0  0  0  0  0  0  0  0  0  0  0
    0.5147    0.2884   -0.7709 O   0  0  0  0  0  0  0  0  0  0  0  0
    0.3335   -0.5809    0.3538 C   0  0  2  0  0  0  0  0  0  0  0  0
    0.0668    0.2249    1.5550 N   0  0  0  0  0  0  0  0  0  0  0  0
    0.7979    1.2169    1.9721 C   0  0  0  0  0  0  0  0  0  0  0  0
    0.4291    1.8998    3.1290 O   0  0  0  0  0  0  0  0  0  0  0  0
    1.9435    1.6003    1.2678 O   0  0  0  0  0  0  0  0  0  0  0  0
    2.7639    2.6829    1.6848 C   0  0  0  0  0  0  0  0  0  0  0  0
    1.6439   -1.3360    0.5288 C   0  0  0  0  0  0  0  0  0  0  0  0
    2.4705   -1.5287   -0.5761 O   0  0  0  0  0  0  0  0  0  0  0  0
    1.9939   -1.8362    1.6745 N   0  0  0  0  0  0  0  0  0  0  0  0
   -0.8444   -1.5971    0.1598 C   0  0  2  0  0  0  0  0  0  0  0  0
   -0.6557   -2.7946    0.8798 O   0  0  0  0  0  0  0  0  0  0  0  0
   -1.0770   -1.8581   -1.3374 C   0  0  1  0  0  0  0  0  0  0  0  0
   -2.0636   -2.8402   -1.5423 O   0  0  0  0  0  0  0  0  0  0  0  0
   -1.4649   -0.5361   -2.0293 C   0  0  2  0  0  0  0  0  0  0  0  0
   -1.2826   -0.6468   -3.4198 O   0  0  0  0  0  0  0  0  0  0  0  0
   -0.3261    1.2865   -2.3206 H   0  0  0  0  0  0  0  0  0  0  0  0
   -2.0763    1.1149    0.1960 H   0  0  0  0  0  0  0  0  0  0  0  0
   -0.8647    2.3926   -0.1329 H   0  0  0  0  0  0  0  0  0  0  0  0
   -3.2813    1.8402   -1.4402 H   0  0  0  0  0  0  0  0  0  0  0  0
   -0.3992    1.6365    3.6500 H   0  0  0  0  0  0  0  0  0  0  0  0
    2.1741    3.6238    1.6969 H   0  0  0  0  0  0  0  0  0  0  0  0
    3.6072    2.7959    0.9731 H   0  0  0  0  0  0  0  0  0  0  0  0
    3.1721    2.4820    2.6980 H   0  0  0  0  0  0  0  0  0  0  0  0
    3.3422   -2.0388   -0.4957 H   0  0  0  0  0  0  0  0  0  0  0  0
    1.4054   -1.7442    2.5323 H   0  0  0  0  0  0  0  0  0  0  0  0
   -1.7758   -1.1408    0.5612 H   0  0  0  0  0  0  0  0  0  0  0  0
   -0.0393   -3.3764    0.3625 H   0  0  0  0  0  0  0  0  0  0  0  0
   -0.1265   -2.2362   -1.7755 H   0  0  0  0  0  0  0  0  0  0  0  0
   -2.8900   -2.5429   -1.0787 H   0  0  0  0  0  0  0  0  0  0  0  0
   -2.5499   -0.3663   -1.8605 H   0  0  0  0  0  0  0  0  0  0  0  0
   -0.3099   -0.7590   -3.5872 H   0  0  0  0  0  0  0  0  0  0  0  0
  1  2  1  0
  2  3  1  0
  1  4  1  0
  4  5  1  0
  5  6  1  1
  6  7  2  3
  7  8  1  0
  7  9  1  0
  9 10  1  0
  5 11  1  0
 11 12  1  0
 11 13  2  3
  5 14  1  0
 14 15  1  0
 14 16  1  0
 16 17  1  0
 16 18  1  0
 18 19  1  0
 18  1  1  0
  1 20  1  6
  2 21  1  0
  2 22  1  0
  3 23  1  0
  8 24  1  0
 10 25  1  0
 10 26  1  0
 10 27  1  0
 12 28  1  0
 13 29  1  0
 14 30  1  1
 15 31  1  0
 16 32  1  6
 17 33  1  0
 18 34  1  6
 19 35  1  0
M  END
$$$$
