
     RDKit          3D

 85 88  0  0  0  0  0  0  0  0999 V2000
   -5.6454   -1.3062   -3.8867 O   0  0  0  0  0  0  0  0  0  0  0  0
   -4.9684   -0.4891   -2.9624 C   0  0  2  0  0  0  0  0  0  0  0  0
   -3.5785   -0.1602   -3.5506 C   0  0  0  0  0  0  0  0  0  0  0  0
   -2.6563    0.6772   -2.6235 C   0  0  0  0  0  0  0  0  0  0  0  0
   -2.9080    0.4776   -1.0949 C   0  0  1  0  0  0  0  0  0  0  0  0
   -3.9606    1.5450   -0.6267 C   0  0  0  0  0  0  0  0  0  0  0  0
   -3.4752   -0.9764   -0.9022 C   0  0  1  0  0  0  0  0  0  0  0  0
   -3.2888   -1.4419    0.5541 C   0  0  0  0  0  0  0  0  0  0  0  0
   -1.7894   -1.6880    0.8413 C   0  0  0  0  0  0  0  0  0  0  0  0
   -0.7969   -0.6130    0.2348 C   0  0  1  0  0  0  0  0  0  0  0  0
   -0.1189   -1.2555   -1.0250 C   0  0  0  0  0  0  0  0  0  0  0  0
   -1.6046    0.6963   -0.1900 C   0  0  1  0  0  0  0  0  0  0  0  0
   -0.7104    1.9451   -0.5352 C   0  0  2  0  0  0  0  0  0  0  0  0
   -0.0660    1.7846   -1.7714 O   0  0  0  0  0  0  0  0  0  0  0  0
    0.3442    2.2195    0.5702 C   0  0  0  0  0  0  0  0  0  0  0  0
    1.1903    0.9452    0.7666 C   0  0  1  0  0  0  0  0  0  0  0  0
    2.4207    0.9541    1.6462 C   0  0  0  0  0  0  0  0  0  0  0  0
    2.5254   -0.3992    2.3222 C   0  0  1  0  0  0  0  0  0  0  0  0
    2.3378   -0.2753    3.7320 O   0  0  0  0  0  0  0  0  0  0  0  0
    2.5816   -1.3159    4.6338 C   0  0  0  0  0  0  0  0  0  0  0  0
    3.0491   -2.4180    4.2377 O   0  0  0  0  0  0  0  0  0  0  0  0
    2.3380   -1.0954    6.0873 C   0  0  0  0  0  0  0  0  0  0  0  0
    1.3870   -1.2319    1.6918 C   0  0  0  0  0  0  0  0  0  0  0  0
    0.3027   -0.1924    1.3312 C   0  0  2  0  0  0  0  0  0  0  0  0
   -0.3603    0.2324    2.7092 C   0  0  0  0  0  0  0  0  0  0  0  0
    3.5154    1.7478    1.4730 C   0  0  0  0  0  0  0  0  0  0  0  0
    3.7747    2.4812    0.1617 C   0  0  0  0  0  0  0  0  0  0  0  0
    4.8293    1.7730   -0.7084 C   0  0  0  0  0  0  0  0  0  0  0  0
    4.4519    0.3452   -1.0285 C   0  0  0  0  0  0  0  0  0  0  0  0
    3.7039   -0.0337   -2.0876 C   0  0  0  0  0  0  0  0  0  0  0  0
    3.1775    0.9617   -3.0933 C   0  0  0  0  0  0  0  0  0  0  0  0
    3.4141   -1.5005   -2.2734 C   0  0  0  0  0  0  0  0  0  0  0  0
    4.5830    1.8210    2.5114 C   0  0  0  0  0  0  0  0  0  0  0  0
    4.3479    1.3945    3.8139 O   0  0  0  0  0  0  0  0  0  0  0  0
    5.7001    2.3367    2.2382 O   0  0  0  0  0  0  0  0  0  0  0  0
   -4.9002   -1.1465   -1.5253 C   0  0  2  0  0  0  0  0  0  0  0  0
   -5.3303   -2.6319   -1.5543 C   0  0  0  0  0  0  0  0  0  0  0  0
   -6.6182   -1.1537   -3.7554 H   0  0  0  0  0  0  0  0  0  0  0  0
   -5.5230    0.4725   -2.9032 H   0  0  0  0  0  0  0  0  0  0  0  0
   -3.0683   -1.1189   -3.7946 H   0  0  0  0  0  0  0  0  0  0  0  0
   -3.7077    0.3817   -4.5129 H   0  0  0  0  0  0  0  0  0  0  0  0
   -2.7446    1.7534   -2.8914 H   0  0  0  0  0  0  0  0  0  0  0  0
   -1.6236    0.3774   -2.8839 H   0  0  0  0  0  0  0  0  0  0  0  0
   -4.8620    1.6001   -1.2536 H   0  0  0  0  0  0  0  0  0  0  0  0
   -3.5363    2.5674   -0.6521 H   0  0  0  0  0  0  0  0  0  0  0  0
   -4.3007    1.3510    0.4114 H   0  0  0  0  0  0  0  0  0  0  0  0
   -2.8700   -1.6854   -1.4953 H   0  0  0  0  0  0  0  0  0  0  0  0
   -3.8217   -2.3893    0.7578 H   0  0  0  0  0  0  0  0  0  0  0  0
   -3.6951   -0.6917    1.2639 H   0  0  0  0  0  0  0  0  0  0  0  0
   -1.5363   -2.7025    0.4606 H   0  0  0  0  0  0  0  0  0  0  0  0
   -1.6872   -1.7947    1.9368 H   0  0  0  0  0  0  0  0  0  0  0  0
    0.6134   -0.6057   -1.5282 H   0  0  0  0  0  0  0  0  0  0  0  0
    0.3823   -2.2106   -0.7716 H   0  0  0  0  0  0  0  0  0  0  0  0
   -0.8331   -1.5160   -1.8179 H   0  0  0  0  0  0  0  0  0  0  0  0
   -2.0498    1.0264    0.7602 H   0  0  0  0  0  0  0  0  0  0  0  0
   -1.3594    2.8466   -0.5868 H   0  0  0  0  0  0  0  0  0  0  0  0
    0.2219    2.6870   -2.0693 H   0  0  0  0  0  0  0  0  0  0  0  0
    0.9551    3.0935    0.2796 H   0  0  0  0  0  0  0  0  0  0  0  0
   -0.1641    2.5259    1.5070 H   0  0  0  0  0  0  0  0  0  0  0  0
    1.5980    0.6715   -0.2213 H   0  0  0  0  0  0  0  0  0  0  0  0
    3.5109   -0.8695    2.1026 H   0  0  0  0  0  0  0  0  0  0  0  0
    3.2714   -0.7354    6.5675 H   0  0  0  0  0  0  0  0  0  0  0  0
    1.5404   -0.3354    6.2245 H   0  0  0  0  0  0  0  0  0  0  0  0
    2.0174   -2.0427    6.5699 H   0  0  0  0  0  0  0  0  0  0  0  0
    1.0147   -2.0330    2.3660 H   0  0  0  0  0  0  0  0  0  0  0  0
    1.8023   -1.7237    0.7913 H   0  0  0  0  0  0  0  0  0  0  0  0
   -0.4427   -0.6268    3.4085 H   0  0  0  0  0  0  0  0  0  0  0  0
    0.2377    1.0022    3.2396 H   0  0  0  0  0  0  0  0  0  0  0  0
   -1.3795    0.6424    2.6432 H   0  0  0  0  0  0  0  0  0  0  0  0
    2.8740    2.6070   -0.4557 H   0  0  0  0  0  0  0  0  0  0  0  0
    4.1325    3.5083    0.3897 H   0  0  0  0  0  0  0  0  0  0  0  0
    5.8060    1.7621   -0.1834 H   0  0  0  0  0  0  0  0  0  0  0  0
    4.9946    2.3556   -1.6388 H   0  0  0  0  0  0  0  0  0  0  0  0
    4.8118   -0.4177   -0.3422 H   0  0  0  0  0  0  0  0  0  0  0  0
    4.0236    1.4546   -3.6157 H   0  0  0  0  0  0  0  0  0  0  0  0
    2.5582    1.7289   -2.5892 H   0  0  0  0  0  0  0  0  0  0  0  0
    2.5445    0.4687   -3.8599 H   0  0  0  0  0  0  0  0  0  0  0  0
    4.3650   -2.0520   -2.4305 H   0  0  0  0  0  0  0  0  0  0  0  0
    2.7554   -1.6830   -3.1478 H   0  0  0  0  0  0  0  0  0  0  0  0
    2.9108   -1.9036   -1.3708 H   0  0  0  0  0  0  0  0  0  0  0  0
    5.0671    1.4637    4.5240 H   0  0  0  0  0  0  0  0  0  0  0  0
   -5.6339   -0.6258   -0.8718 H   0  0  0  0  0  0  0  0  0  0  0  0
   -6.3470   -2.7365   -1.9870 H   0  0  0  0  0  0  0  0  0  0  0  0
   -5.4039   -3.0586   -0.5362 H   0  0  0  0  0  0  0  0  0  0  0  0
   -4.6174   -3.2361   -2.1551 H   0  0  0  0  0  0  0  0  0  0  0  0
  1  2  1  0
  2  3  1  0
  3  4  1  0
  4  5  1  0
  5  6  1  1
  5  7  1  0
  7  8  1  0
  8  9  1  0
  9 10  1  0
 10 11  1  6
 10 12  1  0
 12 13  1  0
 13 14  1  0
 13 15  1  0
 15 16  1  0
 16 17  1  0
 17 18  1  0
 18 19  1  0
 19 20  1  0
 20 21  2  0
 20 22  1  0
 18 23  1  0
 23 24  1  0
 24 25  1  1
 17 26  2  0
 26 27  1  0
 27 28  1  0
 28 29  1  0
 29 30  2  3
 30 31  1  0
 30 32  1  0
 26 33  1  0
 33 34  1  0
 33 35  2  0
  7 36  1  0
 36 37  1  0
 36  2  1  0
 12  5  1  0
 24 16  1  0
 24 10  1  0
  1 38  1  0
  2 39  1  1
  3 40  1  0
  3 41  1  0
  4 42  1  0
  4 43  1  0
  6 44  1  0
  6 45  1  0
  6 46  1  0
  7 47  1  6
  8 48  1  0
  8 49  1  0
  9 50  1  0
  9 51  1  0
 11 52  1  0
 11 53  1  0
 11 54  1  0
 12 55  1  1
 13 56  1  6
 14 57  1  0
 15 58  1  0
 15 59  1  0
 16 60  1  6
 18 61  1  1
 22 62  1  0
 22 63  1  0
 22 64  1  0
 23 65  1  0
 23 66  1  0
 25 67  1  0
 25 68  1  0
 25 69  1  0
 27 70  1  0
 27 71  1  0
 28 72  1  0
 28 73  1  0
 29 74  1  0
 31 75  1  0
 31 76  1  0
 31 77  1  0
 32 78  1  0
 32 79  1  0
 32 80  1  0
 34 81  1  0
 36 82  1  1
 37 83  1  0
 37 84  1  0
 37 85  1  0
M  END
$$$$
