
     RDKit          3D

 30 31  0  0  0  0  0  0  0  0999 V2000
    1.5599    0.5264    0.3292 C   0  0  1  0  0  0  0  0  0  0  0  0
    2.5535    0.2346   -0.8016 C   0  0  0  0  0  0  0  0  0  0  0  0
    3.8464   -0.2785   -0.2507 C   0  0  0  0  0  0  0  0  0  0  0  0
    4.0454   -1.5218   -0.1724 O   0  0  0  0  0  0  0  0  0  0  0  0
    4.8050    0.6280    0.2111 O   0  0  0  0  0  0  0  0  0  0  0  0
    6.0446    0.2124    0.7712 C   0  0  0  0  0  0  0  0  0  0  0  0
    0.2145    1.0635   -0.1939 C   0  0  0  0  0  0  0  0  0  0  0  0
   -0.7468    0.0268    0.2976 C   0  0  0  0  0  0  0  0  0  0  0  0
   -0.1541   -0.9150    0.9471 N   0  0  0  0  0  0  0  0  0  0  0  0
    1.1932   -0.6744    0.9909 O   0  0  0  0  0  0  0  0  0  0  0  0
   -2.2133    0.0497    0.0790 C   0  0  0  0  0  0  0  0  0  0  0  0
   -2.8166    1.1033   -0.6329 C   0  0  0  0  0  0  0  0  0  0  0  0
   -4.1997    1.1207   -0.8369 C   0  0  0  0  0  0  0  0  0  0  0  0
   -4.9992    0.0902   -0.3352 C   0  0  0  0  0  0  0  0  0  0  0  0
   -6.3757    0.1216   -0.5466 O   0  0  0  0  0  0  0  0  0  0  0  0
   -4.4091   -0.9628    0.3746 C   0  0  0  0  0  0  0  0  0  0  0  0
   -3.0265   -0.9841    0.5809 C   0  0  0  0  0  0  0  0  0  0  0  0
    1.9988    1.2384    1.0630 H   0  0  0  0  0  0  0  0  0  0  0  0
    2.7522    1.1689   -1.3697 H   0  0  0  0  0  0  0  0  0  0  0  0
    2.1226   -0.5123   -1.5045 H   0  0  0  0  0  0  0  0  0  0  0  0
    6.6322    1.1076    1.0607 H   0  0  0  0  0  0  0  0  0  0  0  0
    5.8644   -0.4077    1.6748 H   0  0  0  0  0  0  0  0  0  0  0  0
    6.6226   -0.3717    0.0240 H   0  0  0  0  0  0  0  0  0  0  0  0
    0.1776    1.1258   -1.3035 H   0  0  0  0  0  0  0  0  0  0  0  0
   -0.0193    2.0511    0.2586 H   0  0  0  0  0  0  0  0  0  0  0  0
   -2.2239    1.9154   -1.0331 H   0  0  0  0  0  0  0  0  0  0  0  0
   -4.6510    1.9372   -1.3863 H   0  0  0  0  0  0  0  0  0  0  0  0
   -6.9821   -0.6105   -0.1956 H   0  0  0  0  0  0  0  0  0  0  0  0
   -5.0206   -1.7654    0.7670 H   0  0  0  0  0  0  0  0  0  0  0  0
   -2.5950   -1.8097    1.1329 H   0  0  0  0  0  0  0  0  0  0  0  0
  1  2  1  0
  2  3  1  0
  3  4  2  0
  3  5  1  0
  5  6  1  0
  1  7  1  0
  7  8  1  0
  8  9  2  0
  9 10  1  0
  8 11  1  0
 11 12  2  0
 12 13  1  0
 13 14  2  0
 14 15  1  0
 14 16  1  0
 16 17  2  0
 10  1  1  0
 17 11  1  0
  1 18  1  1
  2 19  1  0
  2 20  1  0
  6 21  1  0
  6 22  1  0
  6 23  1  0
  7 24  1  0
  7 25  1  0
 12 26  1  0
 13 27  1  0
 15 28  1  0
 16 29  1  0
 17 30  1  0
M  END
$$$$
