
     RDKit          3D

 49 52  0  0  0  0  0  0  0  0999 V2000
   -7.3690   -1.9363   -0.7419 C   0  0  0  0  0  0  0  0  0  0  0  0
   -7.6859   -0.5158   -0.6533 N   0  0  0  0  0  0  0  0  0  0  0  0
   -8.9048   -0.0692   -0.3572 N   0  0  0  0  0  0  0  0  0  0  0  0
   -8.8704    1.2834   -0.2995 C   0  0  0  0  0  0  0  0  0  0  0  0
   -7.5833    1.6768   -0.5680 C   0  0  0  0  0  0  0  0  0  0  0  0
   -6.8616    0.5475   -0.7998 C   0  0  0  0  0  0  0  0  0  0  0  0
   -5.4878    0.6529   -1.0701 C   0  0  0  0  0  0  0  0  0  0  0  0
   -4.6611   -0.4803   -1.3766 N   0  0  0  0  0  0  0  0  0  0  0  0
   -3.2056   -0.4348   -1.2515 C   0  0  0  0  0  0  0  0  0  0  0  0
   -2.7990   -0.4136    0.2233 C   0  0  0  0  0  0  0  0  0  0  0  0
   -1.3092   -0.3818    0.3572 C   0  0  0  0  0  0  0  0  0  0  0  0
   -0.4681   -1.4895    0.3776 C   0  0  0  0  0  0  0  0  0  0  0  0
    0.8575   -1.1949    0.4370 N   0  0  0  0  0  0  0  0  0  0  0  0
    1.0725    0.1402    0.4535 C   0  0  0  0  0  0  0  0  0  0  0  0
    2.3709    0.7460    0.5051 N   0  0  0  0  0  0  0  0  0  0  0  0
    3.6004    0.0067    0.5576 C   0  0  0  0  0  0  0  0  0  0  0  0
    3.5851   -1.2539    0.5922 O   0  0  0  0  0  0  0  0  0  0  0  0
    4.8478    0.7158    0.6139 N   0  0  0  0  0  0  0  0  0  0  0  0
    6.1366    0.0964    0.4594 C   0  0  0  0  0  0  0  0  0  0  0  0
    6.3324   -0.9751   -0.4291 C   0  0  0  0  0  0  0  0  0  0  0  0
    7.6022   -1.5331   -0.5901 C   0  0  0  0  0  0  0  0  0  0  0  0
    8.6886   -1.0281    0.1274 C   0  0  0  0  0  0  0  0  0  0  0  0
    8.5133    0.0394    1.0242 C   0  0  0  0  0  0  0  0  0  0  0  0
    7.2371    0.6148    1.1597 C   0  0  0  0  0  0  0  0  0  0  0  0
    9.6955    0.6261    1.7541 C   0  0  0  0  0  0  0  0  0  0  0  0
   10.6565   -0.3422    1.9888 F   0  0  0  0  0  0  0  0  0  0  0  0
    9.3043    1.1509    2.9738 F   0  0  0  0  0  0  0  0  0  0  0  0
   10.2495    1.6337    0.9869 F   0  0  0  0  0  0  0  0  0  0  0  0
   -0.3654    1.0116    0.3880 S   0  0  0  0  0  0  0  0  0  0  0  0
   -4.9469    1.9103   -1.0653 N   0  0  0  0  0  0  0  0  0  0  0  0
   -5.7022    3.0260   -0.8183 C   0  0  0  0  0  0  0  0  0  0  0  0
   -7.0387    2.9149   -0.5663 N   0  0  0  0  0  0  0  0  0  0  0  0
   -6.4791   -2.1688   -0.1201 H   0  0  0  0  0  0  0  0  0  0  0  0
   -8.2199   -2.5395   -0.3598 H   0  0  0  0  0  0  0  0  0  0  0  0
   -7.1941   -2.2179   -1.8008 H   0  0  0  0  0  0  0  0  0  0  0  0
   -9.7140    1.9169   -0.0603 H   0  0  0  0  0  0  0  0  0  0  0  0
   -5.0769   -1.3265   -1.8187 H   0  0  0  0  0  0  0  0  0  0  0  0
   -2.8091    0.4614   -1.7770 H   0  0  0  0  0  0  0  0  0  0  0  0
   -2.7699   -1.3356   -1.7377 H   0  0  0  0  0  0  0  0  0  0  0  0
   -3.2266    0.4821    0.7225 H   0  0  0  0  0  0  0  0  0  0  0  0
   -3.1986   -1.3168    0.7336 H   0  0  0  0  0  0  0  0  0  0  0  0
   -0.8278   -2.5093    0.3420 H   0  0  0  0  0  0  0  0  0  0  0  0
    2.4211    1.7893    0.4973 H   0  0  0  0  0  0  0  0  0  0  0  0
    4.8173    1.7293    0.8674 H   0  0  0  0  0  0  0  0  0  0  0  0
    5.5148   -1.3592   -1.0243 H   0  0  0  0  0  0  0  0  0  0  0  0
    7.7478   -2.3506   -1.2844 H   0  0  0  0  0  0  0  0  0  0  0  0
    9.6672   -1.4652   -0.0268 H   0  0  0  0  0  0  0  0  0  0  0  0
    7.0926    1.4637    1.8170 H   0  0  0  0  0  0  0  0  0  0  0  0
   -5.2361    4.0016   -0.8236 H   0  0  0  0  0  0  0  0  0  0  0  0
  1  2  1  0
  2  3  1  0
  3  4  2  0
  4  5  1  0
  5  6  2  0
  6  7  1  0
  7  8  1  0
  8  9  1  0
  9 10  1  0
 10 11  1  0
 11 12  2  0
 12 13  1  0
 13 14  2  0
 14 15  1  0
 15 16  1  0
 16 17  2  0
 16 18  1  0
 18 19  1  0
 19 20  2  0
 20 21  1  0
 21 22  2  0
 22 23  1  0
 23 24  2  0
 23 25  1  0
 25 26  1  0
 25 27  1  0
 25 28  1  0
 14 29  1  0
  7 30  2  0
 30 31  1  0
 31 32  2  0
  6  2  1  0
 29 11  1  0
 32  5  1  0
 24 19  1  0
  1 33  1  0
  1 34  1  0
  1 35  1  0
  4 36  1  0
  8 37  1  0
  9 38  1  0
  9 39  1  0
 10 40  1  0
 10 41  1  0
 12 42  1  0
 15 43  1  0
 18 44  1  0
 20 45  1  0
 21 46  1  0
 22 47  1  0
 24 48  1  0
 31 49  1  0
M  END
$$$$
