
     RDKit          3D

 49 52  0  0  0  0  0  0  0  0999 V2000
   -3.4918    0.1744   -1.5699 C   0  0  1  0  0  0  0  0  0  0  0  0
   -2.0725   -0.2357   -1.9912 C   0  0  0  0  0  0  0  0  0  0  0  0
   -1.1050   -0.1007   -0.8900 N   0  0  0  0  0  0  0  0  0  0  0  0
    0.1766    0.2713   -1.1837 C   0  0  0  0  0  0  0  0  0  0  0  0
    1.1640    0.3182   -0.1910 C   0  0  0  0  0  0  0  0  0  0  0  0
    2.5386    0.7417   -0.5502 C   0  0  0  0  0  0  0  0  0  0  0  0
    3.0021    0.4414   -1.6843 O   0  0  0  0  0  0  0  0  0  0  0  0
    3.3341    1.5135    0.3627 N   0  0  0  0  0  0  0  0  0  0  0  0
    4.7657    1.7255    0.1638 C   0  0  0  0  0  0  0  0  0  0  0  0
    5.5184    0.4451    0.4109 C   0  0  0  0  0  0  0  0  0  0  0  0
    6.0717   -0.2711   -0.6641 C   0  0  0  0  0  0  0  0  0  0  0  0
    6.7471   -1.4739   -0.4369 C   0  0  0  0  0  0  0  0  0  0  0  0
    6.8712   -1.9735    0.8623 C   0  0  0  0  0  0  0  0  0  0  0  0
    7.5253   -3.1409    1.0801 F   0  0  0  0  0  0  0  0  0  0  0  0
    6.3179   -1.2714    1.9367 C   0  0  0  0  0  0  0  0  0  0  0  0
    5.6411   -0.0673    1.7156 C   0  0  0  0  0  0  0  0  0  0  0  0
    5.1026    0.5960    2.7703 F   0  0  0  0  0  0  0  0  0  0  0  0
    0.8251   -0.0769    1.1142 C   0  0  0  0  0  0  0  0  0  0  0  0
    1.7021   -0.1067    2.0203 O   0  0  0  0  0  0  0  0  0  0  0  0
   -0.4898   -0.4667    1.4092 C   0  0  0  0  0  0  0  0  0  0  0  0
   -0.8416   -0.8342    2.7109 O   0  0  0  0  0  0  0  0  0  0  0  0
   -1.4553   -0.4770    0.3809 C   0  0  0  0  0  0  0  0  0  0  0  0
   -2.8674   -0.8326    0.6510 C   0  0  0  0  0  0  0  0  0  0  0  0
   -3.1902   -1.4534    1.7004 O   0  0  0  0  0  0  0  0  0  0  0  0
   -3.8798   -0.4389   -0.2915 N   0  0  0  0  0  0  0  0  0  0  0  0
   -5.2531   -0.1989    0.1738 C   0  0  2  0  0  0  0  0  0  0  0  0
   -6.0785   -1.4827    0.0706 C   0  0  0  0  0  0  0  0  0  0  0  0
   -5.8900    0.9419   -0.6409 C   0  0  0  0  0  0  0  0  0  0  0  0
   -4.8333    2.0335   -0.9357 C   0  0  0  0  0  0  0  0  0  0  0  0
   -3.5906    1.5848   -1.4825 O   0  0  0  0  0  0  0  0  0  0  0  0
   -4.1727   -0.1868   -2.3742 H   0  0  0  0  0  0  0  0  0  0  0  0
   -1.7738    0.3834   -2.8668 H   0  0  0  0  0  0  0  0  0  0  0  0
   -2.0855   -1.2973   -2.3223 H   0  0  0  0  0  0  0  0  0  0  0  0
    0.4400    0.5412   -2.2006 H   0  0  0  0  0  0  0  0  0  0  0  0
    2.8767    1.9714    1.1829 H   0  0  0  0  0  0  0  0  0  0  0  0
    5.1263    2.5007    0.8743 H   0  0  0  0  0  0  0  0  0  0  0  0
    4.9494    2.1155   -0.8611 H   0  0  0  0  0  0  0  0  0  0  0  0
    5.9787    0.0990   -1.6776 H   0  0  0  0  0  0  0  0  0  0  0  0
    7.1721   -2.0195   -1.2696 H   0  0  0  0  0  0  0  0  0  0  0  0
    6.4112   -1.6618    2.9420 H   0  0  0  0  0  0  0  0  0  0  0  0
   -0.1765   -0.8335    3.4750 H   0  0  0  0  0  0  0  0  0  0  0  0
   -5.2327    0.1280    1.2384 H   0  0  0  0  0  0  0  0  0  0  0  0
   -7.1196   -1.2956    0.4098 H   0  0  0  0  0  0  0  0  0  0  0  0
   -5.6368   -2.2724    0.7139 H   0  0  0  0  0  0  0  0  0  0  0  0
   -6.0983   -1.8481   -0.9785 H   0  0  0  0  0  0  0  0  0  0  0  0
   -6.7394    1.3840   -0.0760 H   0  0  0  0  0  0  0  0  0  0  0  0
   -6.2904    0.5608   -1.6065 H   0  0  0  0  0  0  0  0  0  0  0  0
   -4.6162    2.5747    0.0100 H   0  0  0  0  0  0  0  0  0  0  0  0
   -5.2773    2.7729   -1.6351 H   0  0  0  0  0  0  0  0  0  0  0  0
  1  2  1  0
  2  3  1  0
  3  4  1  0
  4  5  2  0
  5  6  1  0
  6  7  2  0
  6  8  1  0
  8  9  1  0
  9 10  1  0
 10 11  2  0
 11 12  1  0
 12 13  2  0
 13 14  1  0
 13 15  1  0
 15 16  2  0
 16 17  1  0
  5 18  1  0
 18 19  2  0
 18 20  1  0
 20 21  1  0
 20 22  2  0
 22 23  1  0
 23 24  2  0
 23 25  1  0
 25 26  1  0
 26 27  1  0
 26 28  1  0
 28 29  1  0
 29 30  1  0
 25  1  1  0
 30  1  1  0
 22  3  1  0
 16 10  1  0
  1 31  1  6
  2 32  1  0
  2 33  1  0
  4 34  1  0
  8 35  1  0
  9 36  1  0
  9 37  1  0
 11 38  1  0
 12 39  1  0
 15 40  1  0
 21 41  1  0
 26 42  1  1
 27 43  1  0
 27 44  1  0
 27 45  1  0
 28 46  1  0
 28 47  1  0
 29 48  1  0
 29 49  1  0
M  END
$$$$
