
     RDKit          3D

 44 46  0  0  0  0  0  0  0  0999 V2000
    4.9589    0.8914    0.6908 C   0  0  0  0  0  0  0  0  0  0  0  0
    3.5663    0.4102    0.7330 N   0  0  0  0  0  0  0  0  0  0  0  0
    2.6370    1.3165    0.0474 C   0  0  1  0  0  0  0  0  0  0  0  0
    2.7722    1.0157   -1.4543 C   0  0  0  0  0  0  0  0  0  0  0  0
    3.2707   -0.4197   -1.5034 C   0  0  0  0  0  0  0  0  0  0  0  0
    3.3766   -0.8319   -0.0261 C   0  0  2  0  0  0  0  0  0  0  0  0
    2.0510   -1.4841    0.4553 C   0  0  0  0  0  0  0  0  0  0  0  0
    1.0665   -0.4648    1.0963 C   0  0  1  0  0  0  0  0  0  0  0  0
    1.2029    0.9868    0.5440 C   0  0  0  0  0  0  0  0  0  0  0  0
   -0.2700   -0.9354    0.9258 O   0  0  0  0  0  0  0  0  0  0  0  0
   -1.3673   -0.4251    1.6302 C   0  0  0  0  0  0  0  0  0  0  0  0
   -1.2000    0.4140    2.5572 O   0  0  0  0  0  0  0  0  0  0  0  0
   -2.7620   -0.8299    1.2392 C   0  0  2  0  0  0  0  0  0  0  0  0
   -2.8322   -2.3281    0.8921 C   0  0  0  0  0  0  0  0  0  0  0  0
   -4.1623   -2.7249    0.6888 O   0  0  0  0  0  0  0  0  0  0  0  0
   -3.2502    0.0353    0.0932 C   0  0  0  0  0  0  0  0  0  0  0  0
   -4.4021    0.8277    0.2504 C   0  0  0  0  0  0  0  0  0  0  0  0
   -4.8596    1.6285   -0.8006 C   0  0  0  0  0  0  0  0  0  0  0  0
   -4.1747    1.6470   -2.0177 C   0  0  0  0  0  0  0  0  0  0  0  0
   -3.0312    0.8634   -2.1875 C   0  0  0  0  0  0  0  0  0  0  0  0
   -2.5699    0.0598   -1.1410 C   0  0  0  0  0  0  0  0  0  0  0  0
    5.3191    1.0541   -0.3475 H   0  0  0  0  0  0  0  0  0  0  0  0
    5.0416    1.8468    1.2512 H   0  0  0  0  0  0  0  0  0  0  0  0
    5.6246    0.1549    1.1888 H   0  0  0  0  0  0  0  0  0  0  0  0
    2.8668    2.3864    0.2555 H   0  0  0  0  0  0  0  0  0  0  0  0
    3.5267    1.6952   -1.9078 H   0  0  0  0  0  0  0  0  0  0  0  0
    1.8211    1.1351   -2.0171 H   0  0  0  0  0  0  0  0  0  0  0  0
    2.5892   -1.0671   -2.0964 H   0  0  0  0  0  0  0  0  0  0  0  0
    4.2762   -0.4563   -1.9771 H   0  0  0  0  0  0  0  0  0  0  0  0
    4.2189   -1.5454    0.1230 H   0  0  0  0  0  0  0  0  0  0  0  0
    2.2941   -2.2548    1.2194 H   0  0  0  0  0  0  0  0  0  0  0  0
    1.5491   -2.0297   -0.3732 H   0  0  0  0  0  0  0  0  0  0  0  0
    1.3008   -0.4350    2.1852 H   0  0  0  0  0  0  0  0  0  0  0  0
    0.4503    1.1634   -0.2550 H   0  0  0  0  0  0  0  0  0  0  0  0
    0.9465    1.6929    1.3636 H   0  0  0  0  0  0  0  0  0  0  0  0
   -3.4143   -0.6753    2.1285 H   0  0  0  0  0  0  0  0  0  0  0  0
   -2.4244   -2.9166    1.7421 H   0  0  0  0  0  0  0  0  0  0  0  0
   -2.2112   -2.5673   -0.0018 H   0  0  0  0  0  0  0  0  0  0  0  0
   -4.3875   -2.5025   -0.2521 H   0  0  0  0  0  0  0  0  0  0  0  0
   -4.9476    0.8273    1.1857 H   0  0  0  0  0  0  0  0  0  0  0  0
   -5.7462    2.2355   -0.6708 H   0  0  0  0  0  0  0  0  0  0  0  0
   -4.5304    2.2681   -2.8295 H   0  0  0  0  0  0  0  0  0  0  0  0
   -2.5015    0.8780   -3.1313 H   0  0  0  0  0  0  0  0  0  0  0  0
   -1.6825   -0.5403   -1.2946 H   0  0  0  0  0  0  0  0  0  0  0  0
  1  2  1  0
  2  3  1  0
  3  4  1  0
  4  5  1  0
  5  6  1  0
  6  7  1  0
  7  8  1  0
  8  9  1  0
  8 10  1  0
 10 11  1  0
 11 12  2  0
 11 13  1  0
 13 14  1  0
 14 15  1  0
 13 16  1  0
 16 17  2  0
 17 18  1  0
 18 19  2  0
 19 20  1  0
 20 21  2  0
  6  2  1  0
 21 16  1  0
  9  3  1  0
  1 22  1  0
  1 23  1  0
  1 24  1  0
  3 25  1  6
  4 26  1  0
  4 27  1  0
  5 28  1  0
  5 29  1  0
  6 30  1  6
  7 31  1  0
  7 32  1  0
  8 33  1  1
  9 34  1  0
  9 35  1  0
 13 36  1  1
 14 37  1  0
 14 38  1  0
 15 39  1  0
 17 40  1  0
 18 41  1  0
 19 42  1  0
 20 43  1  0
 21 44  1  0
M  END
$$$$
