
     RDKit          3D

 41 44  0  0  0  0  0  0  0  0999 V2000
    7.3747    1.0286   -0.3940 N   0  0  0  0  0  0  0  0  0  0  0  0
    6.5432   -0.1363   -0.3764 C   0  0  0  0  0  0  0  0  0  0  0  0
    7.0555   -1.2917   -0.0905 N   0  0  0  0  0  0  0  0  0  0  0  0
    5.0887   -0.0252   -0.6185 C   0  0  0  0  0  0  0  0  0  0  0  0
    4.1983   -0.6818    0.2643 C   0  0  0  0  0  0  0  0  0  0  0  0
    2.8324   -0.5533    0.0364 C   0  0  0  0  0  0  0  0  0  0  0  0
    2.3431    0.1702   -1.0045 C   0  0  0  0  0  0  0  0  0  0  0  0
    1.0061    0.1122   -0.9962 N   0  0  0  0  0  0  0  0  0  0  0  0
    0.7188   -0.6596    0.0846 C   0  0  0  0  0  0  0  0  0  0  0  0
    1.8265   -1.0975    0.7433 N   0  0  0  0  0  0  0  0  0  0  0  0
   -0.6541   -1.0427    0.4888 C   0  0  0  0  0  0  0  0  0  0  0  0
   -0.8580   -2.2924    1.0959 C   0  0  0  0  0  0  0  0  0  0  0  0
   -2.1348   -2.6916    1.4865 C   0  0  0  0  0  0  0  0  0  0  0  0
   -3.2271   -1.8545    1.2703 C   0  0  0  0  0  0  0  0  0  0  0  0
   -3.0542   -0.5972    0.6710 C   0  0  0  0  0  0  0  0  0  0  0  0
   -4.2478    0.2419    0.4240 C   0  0  0  0  0  0  0  0  0  0  0  0
   -5.1008    0.5906    1.4848 C   0  0  0  0  0  0  0  0  0  0  0  0
   -6.2408    1.3647    1.2468 C   0  0  0  0  0  0  0  0  0  0  0  0
   -6.5419    1.7881   -0.0506 C   0  0  0  0  0  0  0  0  0  0  0  0
   -5.7054    1.4352   -1.1131 C   0  0  0  0  0  0  0  0  0  0  0  0
   -4.5646    0.6611   -0.8797 C   0  0  0  0  0  0  0  0  0  0  0  0
   -1.7525   -0.1717    0.3074 C   0  0  0  0  0  0  0  0  0  0  0  0
   -1.5271    1.1191   -0.1803 O   0  0  0  0  0  0  0  0  0  0  0  0
    3.1730    0.8156   -1.9142 C   0  0  0  0  0  0  0  0  0  0  0  0
    4.5657    0.7164   -1.7225 C   0  0  0  0  0  0  0  0  0  0  0  0
    5.6134    1.4562   -2.9287 Cl  0  0  0  0  0  0  0  0  0  0  0  0
    8.4073    0.9498   -0.2596 H   0  0  0  0  0  0  0  0  0  0  0  0
    6.9567    1.9818   -0.4743 H   0  0  0  0  0  0  0  0  0  0  0  0
    8.0741   -1.4072    0.1089 H   0  0  0  0  0  0  0  0  0  0  0  0
    4.5596   -1.2606    1.1057 H   0  0  0  0  0  0  0  0  0  0  0  0
    0.3520    0.5270   -1.6963 H   0  0  0  0  0  0  0  0  0  0  0  0
   -0.0273   -2.9687    1.2574 H   0  0  0  0  0  0  0  0  0  0  0  0
   -2.2801   -3.6604    1.9470 H   0  0  0  0  0  0  0  0  0  0  0  0
   -4.2148   -2.1935    1.5591 H   0  0  0  0  0  0  0  0  0  0  0  0
   -4.8786    0.2698    2.4953 H   0  0  0  0  0  0  0  0  0  0  0  0
   -6.8914    1.6357    2.0683 H   0  0  0  0  0  0  0  0  0  0  0  0
   -7.4250    2.3867   -0.2331 H   0  0  0  0  0  0  0  0  0  0  0  0
   -5.9429    1.7584   -2.1183 H   0  0  0  0  0  0  0  0  0  0  0  0
   -3.9305    0.3849   -1.7133 H   0  0  0  0  0  0  0  0  0  0  0  0
   -2.2477    1.8273   -0.2307 H   0  0  0  0  0  0  0  0  0  0  0  0
    2.7581    1.3644   -2.7502 H   0  0  0  0  0  0  0  0  0  0  0  0
  1  2  1  0
  2  3  2  3
  2  4  1  0
  4  5  2  0
  5  6  1  0
  6  7  2  0
  7  8  1  0
  8  9  1  0
  9 10  2  0
  9 11  1  0
 11 12  2  0
 12 13  1  0
 13 14  2  0
 14 15  1  0
 15 16  1  0
 16 17  2  0
 17 18  1  0
 18 19  2  0
 19 20  1  0
 20 21  2  0
 15 22  2  0
 22 23  1  0
  7 24  1  0
 24 25  2  0
 25 26  1  0
 25  4  1  0
 10  6  1  0
 22 11  1  0
 21 16  1  0
  1 27  1  0
  1 28  1  0
  3 29  1  0
  5 30  1  0
  8 31  1  0
 12 32  1  0
 13 33  1  0
 14 34  1  0
 17 35  1  0
 18 36  1  0
 19 37  1  0
 20 38  1  0
 21 39  1  0
 23 40  1  0
 24 41  1  0
M  END
$$$$
