
     RDKit          3D

 15 14  0  0  0  0  0  0  0  0999 V2000
    2.3463    1.1226   -0.6420 F   0  0  0  0  0  0  0  0  0  0  0  0
    1.2505    1.6638    0.0090 C   0  0  0  0  0  0  0  0  0  0  0  0
    0.5642    0.6626    0.7303 O   0  0  0  0  0  0  0  0  0  0  0  0
   -0.1125   -0.2301   -0.1428 C   0  0  0  0  0  0  0  0  0  0  0  0
    0.2801   -1.6695    0.2323 C   0  0  0  0  0  0  0  0  0  0  0  0
   -0.3420   -2.5786   -0.6051 F   0  0  0  0  0  0  0  0  0  0  0  0
    1.6488   -1.8196    0.0992 F   0  0  0  0  0  0  0  0  0  0  0  0
   -0.0687   -1.9467    1.5426 F   0  0  0  0  0  0  0  0  0  0  0  0
   -1.6295    0.0090   -0.0268 C   0  0  0  0  0  0  0  0  0  0  0  0
   -2.3229   -0.8512   -0.8597 F   0  0  0  0  0  0  0  0  0  0  0  0
   -1.9225    1.3077   -0.4019 F   0  0  0  0  0  0  0  0  0  0  0  0
   -2.0556   -0.1799    1.2763 F   0  0  0  0  0  0  0  0  0  0  0  0
    0.5852    2.1793   -0.7193 H   0  0  0  0  0  0  0  0  0  0  0  0
    1.6143    2.4278    0.7261 H   0  0  0  0  0  0  0  0  0  0  0  0
    0.1644   -0.0972   -1.2182 H   0  0  0  0  0  0  0  0  0  0  0  0
  1  2  1  0
  2  3  1  0
  3  4  1  0
  4  5  1  0
  5  6  1  0
  5  7  1  0
  5  8  1  0
  4  9  1  0
  9 10  1  0
  9 11  1  0
  9 12  1  0
  2 13  1  0
  2 14  1  0
  4 15  1  0
M  END
$$$$
