
     RDKit          2D

102103  0  0  0  0  0  0  0  0999 V2000
    4.9935   -2.3301    0.0000 C   0  0  0  0  0  0  0  0  0  0  0  0
    5.0916   -0.8334    0.0000 O   0  0  0  0  0  0  0  0  0  0  0  0
    3.8444    0.0000    0.0000 C   0  0  0  0  0  0  0  0  0  0  0  0
    3.5517   -1.4712    0.0000 C   0  0  0  0  0  0  0  0  0  0  0  0
    2.7184   -2.7184    0.0000 C   0  0  0  0  0  0  0  0  0  0  0  0
    1.4712   -3.5517    0.0000 C   0  0  0  0  0  0  0  0  0  0  0  0
   -0.0000   -3.8444    0.0000 C   0  0  0  0  0  0  0  0  0  0  0  0
   -0.0000   -5.3444    0.0000 C   0  0  0  0  0  0  0  0  0  0  0  0
   -1.4712   -3.5517    0.0000 C   0  0  0  0  0  0  0  0  0  0  0  0
   -2.7184   -2.7184    0.0000 C   0  0  0  0  0  0  0  0  0  0  0  0
   -4.1896   -3.0110    0.0000 C   0  0  0  0  0  0  0  0  0  0  0  0
   -3.5517   -1.4712    0.0000 C   0  0  0  0  0  0  0  0  0  0  0  0
   -5.0229   -1.1785    0.0000 O   0  0  0  0  0  0  0  0  0  0  0  0
   -3.8444    0.0000    0.0000 C   0  0  0  0  0  0  0  0  0  0  0  0
   -5.0916    0.8334    0.0000 C   0  0  0  0  0  0  0  0  0  0  0  0
   -3.5517    1.4712    0.0000 C   0  0  0  0  0  0  0  0  0  0  0  0
   -2.7184    2.7184    0.0000 C   0  0  0  0  0  0  0  0  0  0  0  0
   -3.7790    3.7790    0.0000 C   0  0  0  0  0  0  0  0  0  0  0  0
   -1.4712    3.5517    0.0000 C   0  0  0  0  0  0  0  0  0  0  0  0
    0.0000    3.8444    0.0000 C   0  0  0  0  0  0  0  0  0  0  0  0
    0.0000    5.3444    0.0000 O   0  0  0  0  0  0  0  0  0  0  0  0
    1.2990    6.0944    0.0000 C   0  0  0  0  0  0  0  0  0  0  0  0
    1.4712    3.5517    0.0000 C   0  0  0  0  0  0  0  0  0  0  0  0
    2.2098    4.8573    0.0000 O   0  0  0  0  0  0  0  0  0  0  0  0
    2.7184    2.7184    0.0000 O   0  0  0  0  0  0  0  0  0  0  0  0
    3.5517    1.4712    0.0000 C   0  0  0  0  0  0  0  0  0  0  0  0
    5.0229    1.1785    0.0000 C   0  0  0  0  0  0  0  0  0  0  0  0
    5.3156    2.6497    0.0000 C   0  0  0  0  0  0  0  0  0  0  0  0
    6.4941    0.8859    0.0000 C   0  0  0  0  0  0  0  0  0  0  0  0
    6.2015   -0.5853    0.0000 O   0  0  0  0  0  0  0  0  0  0  0  0
    6.7867    2.3571    0.0000 C   0  0  0  0  0  0  0  0  0  0  0  0
    8.2579    2.0644    0.0000 C   0  0  0  0  0  0  0  0  0  0  0  0
    7.0794    3.8283    0.0000 C   0  0  0  0  0  0  0  0  0  0  0  0
    5.5797    3.8610    0.0000 O   0  0  0  0  0  0  0  0  0  0  0  0
    8.4774    3.2846    0.0000 C   0  0  0  0  0  0  0  0  0  0  0  0
    9.6472    4.2235    0.0000 C   0  0  0  0  0  0  0  0  0  0  0  0
   10.3687    2.9084    0.0000 O   0  0  0  0  0  0  0  0  0  0  0  0
    9.4190    5.7060    0.0000 C   0  0  0  0  0  0  0  0  0  0  0  0
   10.9187    5.6733    0.0000 C   0  0  0  0  0  0  0  0  0  0  0  0
    8.0210    6.2497    0.0000 C   0  0  0  0  0  0  0  0  0  0  0  0
    6.8512    5.3108    0.0000 O   0  0  0  0  0  0  0  0  0  0  0  0
    8.7992    7.5321    0.0000 C   0  0  0  0  0  0  0  0  0  0  0  0
   10.0815    6.7539    0.0000 C   0  0  0  0  0  0  0  0  0  0  0  0
    9.5773    8.8144    0.0000 C   0  0  0  0  0  0  0  0  0  0  0  0
    6.4903   -2.4282    0.0000 H   0  0  0  0  0  0  0  0  0  0  0  0
    3.5174   -2.5971    0.0000 H   0  0  0  0  0  0  0  0  0  0  0  0
    4.8954   -3.8269    0.0000 H   0  0  0  0  0  0  0  0  0  0  0  0
    4.8736    0.3695    0.0000 H   0  0  0  0  0  0  0  0  0  0  0  0
    4.2637   -1.9981    0.0000 H   0  0  0  0  0  0  0  0  0  0  0  0
    3.7790   -3.7790    0.0000 H   0  0  0  0  0  0  0  0  0  0  0  0
    2.2098   -4.8573    0.0000 H   0  0  0  0  0  0  0  0  0  0  0  0
    1.4888   -5.5272    0.0000 H   0  0  0  0  0  0  0  0  0  0  0  0
   -0.9768   -5.4643    0.0000 H   0  0  0  0  0  0  0  0  0  0  0  0
    0.0000   -6.8444    0.0000 H   0  0  0  0  0  0  0  0  0  0  0  0
   -1.3983   -4.5332    0.0000 H   0  0  0  0  0  0  0  0  0  0  0  0
   -2.2996   -4.2656    0.0000 H   0  0  0  0  0  0  0  0  0  0  0  0
   -3.0609   -3.7569    0.0000 H   0  0  0  0  0  0  0  0  0  0  0  0
   -4.8295   -1.6544    0.0000 H   0  0  0  0  0  0  0  0  0  0  0  0
   -3.8969   -4.4822    0.0000 H   0  0  0  0  0  0  0  0  0  0  0  0
   -5.6607   -3.3037    0.0000 H   0  0  0  0  0  0  0  0  0  0  0  0
   -4.6621   -2.4797    0.0000 H   0  0  0  0  0  0  0  0  0  0  0  0
   -6.0119   -2.3063    0.0000 H   0  0  0  0  0  0  0  0  0  0  0  0
   -5.2562   -0.5068    0.0000 H   0  0  0  0  0  0  0  0  0  0  0  0
   -5.9249   -0.4138    0.0000 H   0  0  0  0  0  0  0  0  0  0  0  0
   -4.5848    2.2451    0.0000 H   0  0  0  0  0  0  0  0  0  0  0  0
   -6.3388    1.6667    0.0000 H   0  0  0  0  0  0  0  0  0  0  0  0
   -4.9376    2.0452    0.0000 H   0  0  0  0  0  0  0  0  0  0  0  0
   -2.8556    4.9611    0.0000 H   0  0  0  0  0  0  0  0  0  0  0  0
   -5.0648    3.0066    0.0000 H   0  0  0  0  0  0  0  0  0  0  0  0
   -4.8397    4.8397    0.0000 H   0  0  0  0  0  0  0  0  0  0  0  0
   -1.8720    4.9972    0.0000 H   0  0  0  0  0  0  0  0  0  0  0  0
    0.5490    7.3934    0.0000 H   0  0  0  0  0  0  0  0  0  0  0  0
    2.2018    4.8964    0.0000 H   0  0  0  0  0  0  0  0  0  0  0  0
    2.5981    6.8444    0.0000 H   0  0  0  0  0  0  0  0  0  0  0  0
    4.0585    2.8830    0.0000 H   0  0  0  0  0  0  0  0  0  0  0  0
    5.0950   -0.3197    0.0000 H   0  0  0  0  0  0  0  0  0  0  0  0
    3.9589    3.2896    0.0000 H   0  0  0  0  0  0  0  0  0  0  0  0
    3.8444    2.9424    0.0000 H   0  0  0  0  0  0  0  0  0  0  0  0
    5.2435    4.1480    0.0000 H   0  0  0  0  0  0  0  0  0  0  0  0
    7.9186    0.4161    0.0000 H   0  0  0  0  0  0  0  0  0  0  0  0
    7.3292   -1.5743    0.0000 H   0  0  0  0  0  0  0  0  0  0  0  0
    5.4301    2.9970    0.0000 H   0  0  0  0  0  0  0  0  0  0  0  0
    8.8978    3.4211    0.0000 H   0  0  0  0  0  0  0  0  0  0  0  0
    8.1468    0.5686    0.0000 H   0  0  0  0  0  0  0  0  0  0  0  0
    9.6824    1.5947    0.0000 H   0  0  0  0  0  0  0  0  0  0  0  0
    4.8582    5.1761    0.0000 H   0  0  0  0  0  0  0  0  0  0  0  0
    9.7173    2.4404    0.0000 H   0  0  0  0  0  0  0  0  0  0  0  0
    8.0326    1.8521    0.0000 H   0  0  0  0  0  0  0  0  0  0  0  0
   11.1158    4.5289    0.0000 H   0  0  0  0  0  0  0  0  0  0  0  0
   11.8683    2.8757    0.0000 H   0  0  0  0  0  0  0  0  0  0  0  0
   10.0589    7.0627    0.0000 H   0  0  0  0  0  0  0  0  0  0  0  0
   11.3133    7.1205    0.0000 H   0  0  0  0  0  0  0  0  0  0  0  0
   11.0690    4.1809    0.0000 H   0  0  0  0  0  0  0  0  0  0  0  0
   12.4183    5.6406    0.0000 H   0  0  0  0  0  0  0  0  0  0  0  0
    6.8932    7.2387    0.0000 H   0  0  0  0  0  0  0  0  0  0  0  0
    7.5168    8.3102    0.0000 H   0  0  0  0  0  0  0  0  0  0  0  0
   10.8597    8.0363    0.0000 H   0  0  0  0  0  0  0  0  0  0  0  0
    9.6368    5.3213    0.0000 H   0  0  0  0  0  0  0  0  0  0  0  0
   11.5141    6.3092    0.0000 H   0  0  0  0  0  0  0  0  0  0  0  0
    8.2950    9.5926    0.0000 H   0  0  0  0  0  0  0  0  0  0  0  0
   11.0099    8.3697    0.0000 H   0  0  0  0  0  0  0  0  0  0  0  0
   10.3555   10.0968    0.0000 H   0  0  0  0  0  0  0  0  0  0  0  0
  1  2  1  0
  2  3  1  0
  3  4  1  0
  4  5  2  0
  5  6  1  0
  6  7  2  0
  7  8  1  0
  7  9  1  0
  9 10  1  0
 10 11  1  0
 10 12  1  0
 12 13  1  0
 12 14  1  0
 14 15  1  0
 14 16  1  0
 16 17  2  0
 17 18  1  0
 17 19  1  0
 19 20  2  0
 20 21  1  0
 21 22  1  0
 20 23  1  0
 23 24  2  0
 23 25  1  0
 25 26  1  0
 26 27  1  0
 27 28  1  0
 27 29  1  0
 29 30  1  0
 29 31  1  0
 31 32  1  0
 31 33  1  0
 33 34  1  1
 33 35  1  0
 35 36  1  0
 36 37  1  0
 36 38  1  0
 38 39  1  0
 38 40  1  0
 40 41  1  0
 40 42  1  0
 42 43  1  0
 42 44  1  0
 26  3  1  0
 41 33  1  0
  1 45  1  0
  1 46  1  0
  1 47  1  0
  3 48  1  6
  4 49  1  0
  5 50  1  0
  6 51  1  0
  8 52  1  0
  8 53  1  0
  8 54  1  0
  9 55  1  0
  9 56  1  0
 10 57  1  1
 11 58  1  0
 11 59  1  0
 11 60  1  0
 12 61  1  1
 13 62  1  0
 14 63  1  1
 15 64  1  0
 15 65  1  0
 15 66  1  0
 16 67  1  0
 18 68  1  0
 18 69  1  0
 18 70  1  0
 19 71  1  0
 22 72  1  0
 22 73  1  0
 22 74  1  0
 26 75  1  1
 27 76  1  6
 28 77  1  0
 28 78  1  0
 28 79  1  0
 29 80  1  1
 30 81  1  0
 31 82  1  6
 32 83  1  0
 32 84  1  0
 32 85  1  0
 34 86  1  0
 35 87  1  0
 35 88  1  0
 36 89  1  1
 37 90  1  0
 38 91  1  6
 39 92  1  0
 39 93  1  0
 39 94  1  0
 40 95  1  1
 42 96  1  0
 43 97  1  0
 43 98  1  0
 43 99  1  0
 44100  1  0
 44101  1  0
 44102  1  0
M  END
$$$$
