
     RDKit          3D

 34 36  0  0  0  0  0  0  0  0999 V2000
   -3.3803   -1.2799   -1.7496 O   0  0  0  0  0  0  0  0  0  0  0  0
   -3.2047    0.1039   -1.7635 C   0  0  0  0  0  0  0  0  0  0  0  0
   -1.9416    0.6651   -1.4813 C   0  0  0  0  0  0  0  0  0  0  0  0
   -1.8006    2.0646   -1.4629 C   0  0  0  0  0  0  0  0  0  0  0  0
   -2.8948    2.8916   -1.7341 C   0  0  0  0  0  0  0  0  0  0  0  0
   -2.6854    4.7899   -1.7137 Br  0  0  0  0  0  0  0  0  0  0  0  0
   -4.1401    2.3297   -2.0243 C   0  0  0  0  0  0  0  0  0  0  0  0
   -4.2951    0.9420   -2.0390 C   0  0  0  0  0  0  0  0  0  0  0  0
   -0.7681   -0.1975   -1.2035 C   0  0  0  0  0  0  0  0  0  0  0  0
    0.0437    0.0565   -0.0896 C   0  0  0  0  0  0  0  0  0  0  0  0
    1.1574   -0.7536    0.1705 C   0  0  0  0  0  0  0  0  0  0  0  0
    2.0011   -0.4541    1.3535 C   0  0  0  0  0  0  0  0  0  0  0  0
    3.3821   -0.2326    1.2099 C   0  0  0  0  0  0  0  0  0  0  0  0
    4.1689    0.0636    2.3273 C   0  0  0  0  0  0  0  0  0  0  0  0
    3.5840    0.1483    3.5935 C   0  0  0  0  0  0  0  0  0  0  0  0
    2.2104   -0.0595    3.7441 C   0  0  0  0  0  0  0  0  0  0  0  0
    1.4197   -0.3559    2.6296 C   0  0  0  0  0  0  0  0  0  0  0  0
    1.4378   -1.8315   -0.6972 C   0  0  0  0  0  0  0  0  0  0  0  0
    2.5367   -2.7369   -0.4381 C   0  0  0  0  0  0  0  0  0  0  0  0
    3.4152   -3.4611   -0.2308 N   0  0  0  0  0  0  0  0  0  0  0  0
    0.6043   -2.0494   -1.8079 C   0  0  0  0  0  0  0  0  0  0  0  0
    0.8380   -3.0017   -2.6022 O   0  0  0  0  0  0  0  0  0  0  0  0
   -0.4629   -1.2348   -2.0356 N   0  0  0  0  0  0  0  0  0  0  0  0
   -4.2800   -1.7036   -1.9437 H   0  0  0  0  0  0  0  0  0  0  0  0
   -0.8374    2.5137   -1.2535 H   0  0  0  0  0  0  0  0  0  0  0  0
   -4.9888    2.9673   -2.2358 H   0  0  0  0  0  0  0  0  0  0  0  0
   -5.2668    0.5174   -2.2573 H   0  0  0  0  0  0  0  0  0  0  0  0
   -0.1906    0.8817    0.5733 H   0  0  0  0  0  0  0  0  0  0  0  0
    3.8471   -0.2781    0.2329 H   0  0  0  0  0  0  0  0  0  0  0  0
    5.2317    0.2318    2.2107 H   0  0  0  0  0  0  0  0  0  0  0  0
    4.1944    0.3783    4.4571 H   0  0  0  0  0  0  0  0  0  0  0  0
    1.7580    0.0092    4.7250 H   0  0  0  0  0  0  0  0  0  0  0  0
    0.3570   -0.5181    2.7621 H   0  0  0  0  0  0  0  0  0  0  0  0
   -1.0504   -1.4062   -2.8835 H   0  0  0  0  0  0  0  0  0  0  0  0
  1  2  1  0
  2  3  2  0
  3  4  1  0
  4  5  2  0
  5  6  1  0
  5  7  1  0
  7  8  2  0
  3  9  1  0
  9 10  2  0
 10 11  1  0
 11 12  1  0
 12 13  2  0
 13 14  1  0
 14 15  2  0
 15 16  1  0
 16 17  2  0
 11 18  2  0
 18 19  1  0
 19 20  3  0
 18 21  1  0
 21 22  2  0
 21 23  1  0
  8  2  1  0
 23  9  1  0
 17 12  1  0
  1 24  1  0
  4 25  1  0
  7 26  1  0
  8 27  1  0
 10 28  1  0
 13 29  1  0
 14 30  1  0
 15 31  1  0
 16 32  1  0
 17 33  1  0
 23 34  1  0
M  END
$$$$
