
     RDKit          3D

 53 53  0  0  0  0  0  0  0  0999 V2000
   -3.1831   -4.2107   -2.3116 C   0  0  0  0  0  0  0  0  0  0  0  0
   -3.0325   -3.1434   -1.2178 C   0  0  0  0  0  0  0  0  0  0  0  0
   -3.3210   -3.7613    0.1581 C   0  0  0  0  0  0  0  0  0  0  0  0
   -1.6283   -2.5093   -1.2565 C   0  0  2  0  0  0  0  0  0  0  0  0
   -1.5374   -1.5003   -0.2507 O   0  0  0  0  0  0  0  0  0  0  0  0
   -0.3394   -0.8791    0.1153 C   0  0  0  0  0  0  0  0  0  0  0  0
    0.7549   -1.2413   -0.3970 O   0  0  0  0  0  0  0  0  0  0  0  0
   -0.3663    0.1704    1.0867 N   0  0  0  0  0  0  0  0  0  0  0  0
    0.8568    0.8582    1.5047 C   0  0  0  0  0  0  0  0  0  0  0  0
    0.5576    1.9949    2.5060 C   0  0  2  0  0  0  0  0  0  0  0  0
   -0.1664    3.1739    1.8186 C   0  0  0  0  0  0  0  0  0  0  0  0
   -0.5823    4.2148    2.8132 C   0  0  0  0  0  0  0  0  0  0  0  0
   -1.7202    4.0160    3.5884 O   0  0  0  0  0  0  0  0  0  0  0  0
    0.1160    5.2515    2.9732 O   0  0  0  0  0  0  0  0  0  0  0  0
    1.8396    2.4558    3.1816 C   0  0  0  0  0  0  0  0  0  0  0  0
    1.9643    2.3804    4.5808 C   0  0  0  0  0  0  0  0  0  0  0  0
    3.1341    2.8128    5.2124 C   0  0  0  0  0  0  0  0  0  0  0  0
    4.1916    3.3264    4.4562 C   0  0  0  0  0  0  0  0  0  0  0  0
    5.6577    3.8691    5.2516 Cl  0  0  0  0  0  0  0  0  0  0  0  0
    4.0783    3.4085    3.0655 C   0  0  0  0  0  0  0  0  0  0  0  0
    2.9104    2.9775    2.4298 C   0  0  0  0  0  0  0  0  0  0  0  0
   -1.4179   -1.9092   -2.5372 O   0  0  0  0  0  0  0  0  0  0  0  0
   -0.2432   -2.0451   -3.2860 C   0  0  0  0  0  0  0  0  0  0  0  0
    0.6897   -2.8002   -2.8953 O   0  0  0  0  0  0  0  0  0  0  0  0
   -0.1055   -1.2856   -4.5746 C   0  0  0  0  0  0  0  0  0  0  0  0
    1.0768   -0.3147   -4.5013 C   0  0  0  0  0  0  0  0  0  0  0  0
    0.0460   -2.2502   -5.7545 C   0  0  0  0  0  0  0  0  0  0  0  0
   -2.4304   -5.0175   -2.1782 H   0  0  0  0  0  0  0  0  0  0  0  0
   -3.0499   -3.7589   -3.3174 H   0  0  0  0  0  0  0  0  0  0  0  0
   -4.1990   -4.6588   -2.2737 H   0  0  0  0  0  0  0  0  0  0  0  0
   -3.7868   -2.3468   -1.4049 H   0  0  0  0  0  0  0  0  0  0  0  0
   -4.3371   -4.2105    0.1716 H   0  0  0  0  0  0  0  0  0  0  0  0
   -3.2849   -2.9830    0.9495 H   0  0  0  0  0  0  0  0  0  0  0  0
   -2.5771   -4.5516    0.3969 H   0  0  0  0  0  0  0  0  0  0  0  0
   -0.8775   -3.3066   -1.0532 H   0  0  0  0  0  0  0  0  0  0  0  0
   -1.2897    0.4280    1.5029 H   0  0  0  0  0  0  0  0  0  0  0  0
    1.3713    1.2672    0.6079 H   0  0  0  0  0  0  0  0  0  0  0  0
    1.5325    0.1144    1.9818 H   0  0  0  0  0  0  0  0  0  0  0  0
   -0.1284    1.5781    3.2786 H   0  0  0  0  0  0  0  0  0  0  0  0
    0.4838    3.6338    1.0430 H   0  0  0  0  0  0  0  0  0  0  0  0
   -1.0802    2.8096    1.3033 H   0  0  0  0  0  0  0  0  0  0  0  0
   -2.0060    4.7020    4.2768 H   0  0  0  0  0  0  0  0  0  0  0  0
    1.1557    1.9895    5.1856 H   0  0  0  0  0  0  0  0  0  0  0  0
    3.2166    2.7491    6.2900 H   0  0  0  0  0  0  0  0  0  0  0  0
    4.8940    3.8072    2.4758 H   0  0  0  0  0  0  0  0  0  0  0  0
    2.8428    3.0533    1.3524 H   0  0  0  0  0  0  0  0  0  0  0  0
   -1.0307   -0.6891   -4.7348 H   0  0  0  0  0  0  0  0  0  0  0  0
    2.0330   -0.8655   -4.3681 H   0  0  0  0  0  0  0  0  0  0  0  0
    0.9433    0.3845   -3.6478 H   0  0  0  0  0  0  0  0  0  0  0  0
    1.1367    0.2844   -5.4349 H   0  0  0  0  0  0  0  0  0  0  0  0
    0.9741   -2.8536   -5.6553 H   0  0  0  0  0  0  0  0  0  0  0  0
    0.0897   -1.6820   -6.7081 H   0  0  0  0  0  0  0  0  0  0  0  0
   -0.8263   -2.9372   -5.7993 H   0  0  0  0  0  0  0  0  0  0  0  0
  1  2  1  0
  2  3  1  0
  2  4  1  0
  4  5  1  0
  5  6  1  0
  6  7  2  0
  6  8  1  0
  8  9  1  0
  9 10  1  0
 10 11  1  0
 11 12  1  0
 12 13  1  0
 12 14  2  0
 10 15  1  0
 15 16  2  0
 16 17  1  0
 17 18  2  0
 18 19  1  0
 18 20  1  0
 20 21  2  0
  4 22  1  0
 22 23  1  0
 23 24  2  0
 23 25  1  0
 25 26  1  0
 25 27  1  0
 21 15  1  0
  1 28  1  0
  1 29  1  0
  1 30  1  0
  2 31  1  0
  3 32  1  0
  3 33  1  0
  3 34  1  0
  4 35  1  1
  8 36  1  0
  9 37  1  0
  9 38  1  0
 10 39  1  1
 11 40  1  0
 11 41  1  0
 13 42  1  0
 16 43  1  0
 17 44  1  0
 20 45  1  0
 21 46  1  0
 25 47  1  0
 26 48  1  0
 26 49  1  0
 26 50  1  0
 27 51  1  0
 27 52  1  0
 27 53  1  0
M  END
$$$$
