
     RDKit          3D

 33 34  0  0  0  0  0  0  0  0999 V2000
   -4.2560    2.2292    0.5175 N   0  0  0  0  0  0  0  0  0  0  0  0
   -3.9358    0.8512    0.3250 C   0  0  0  0  0  0  0  0  0  0  0  0
   -3.9972    0.0562    1.3011 O   0  0  0  0  0  0  0  0  0  0  0  0
   -3.5595    0.3359   -1.0338 C   0  0  0  0  0  0  0  0  0  0  0  0
   -2.2191   -0.3644   -0.9945 C   0  0  0  0  0  0  0  0  0  0  0  0
   -2.2036   -1.7696   -0.9790 C   0  0  0  0  0  0  0  0  0  0  0  0
   -1.0014   -2.4680   -0.9141 C   0  0  0  0  0  0  0  0  0  0  0  0
    0.2060   -1.7785   -0.8654 C   0  0  0  0  0  0  0  0  0  0  0  0
    0.2282   -0.3757   -0.8681 C   0  0  0  0  0  0  0  0  0  0  0  0
    1.5419    0.3074   -0.8689 C   0  0  0  0  0  0  0  0  0  0  0  0
    1.7921    1.1348   -1.7876 O   0  0  0  0  0  0  0  0  0  0  0  0
    2.5758    0.0205    0.1587 C   0  0  0  0  0  0  0  0  0  0  0  0
    2.2307   -0.5633    1.3936 C   0  0  0  0  0  0  0  0  0  0  0  0
    3.2129   -0.8200    2.3550 C   0  0  0  0  0  0  0  0  0  0  0  0
    4.5462   -0.4931    2.1000 C   0  0  0  0  0  0  0  0  0  0  0  0
    4.9000    0.0952    0.8840 C   0  0  0  0  0  0  0  0  0  0  0  0
    3.9221    0.3546   -0.0812 C   0  0  0  0  0  0  0  0  0  0  0  0
   -0.9909    0.3482   -0.9203 C   0  0  0  0  0  0  0  0  0  0  0  0
   -0.9786    1.7857   -0.8488 N   0  0  0  0  0  0  0  0  0  0  0  0
   -4.2414    2.9005   -0.2819 H   0  0  0  0  0  0  0  0  0  0  0  0
   -4.5178    2.5804    1.4653 H   0  0  0  0  0  0  0  0  0  0  0  0
   -3.5420    1.1543   -1.7833 H   0  0  0  0  0  0  0  0  0  0  0  0
   -4.3570   -0.3604   -1.3727 H   0  0  0  0  0  0  0  0  0  0  0  0
   -3.1296   -2.3306   -1.0133 H   0  0  0  0  0  0  0  0  0  0  0  0
   -1.0053   -3.5504   -0.9078 H   0  0  0  0  0  0  0  0  0  0  0  0
    1.1311   -2.3417   -0.8361 H   0  0  0  0  0  0  0  0  0  0  0  0
    1.2022   -0.8097    1.6242 H   0  0  0  0  0  0  0  0  0  0  0  0
    2.9387   -1.2691    3.3009 H   0  0  0  0  0  0  0  0  0  0  0  0
    5.3047   -0.6922    2.8460 H   0  0  0  0  0  0  0  0  0  0  0  0
    5.9335    0.3507    0.6884 H   0  0  0  0  0  0  0  0  0  0  0  0
    4.2206    0.8082   -1.0181 H   0  0  0  0  0  0  0  0  0  0  0  0
   -1.8347    2.3605   -0.9947 H   0  0  0  0  0  0  0  0  0  0  0  0
   -0.1167    2.3132   -0.5902 H   0  0  0  0  0  0  0  0  0  0  0  0
  1  2  1  0
  2  3  2  0
  2  4  1  0
  4  5  1  0
  5  6  2  0
  6  7  1  0
  7  8  2  0
  8  9  1  0
  9 10  1  0
 10 11  2  0
 10 12  1  0
 12 13  2  0
 13 14  1  0
 14 15  2  0
 15 16  1  0
 16 17  2  0
  9 18  2  0
 18 19  1  0
 18  5  1  0
 17 12  1  0
  1 20  1  0
  1 21  1  0
  4 22  1  0
  4 23  1  0
  6 24  1  0
  7 25  1  0
  8 26  1  0
 13 27  1  0
 14 28  1  0
 15 29  1  0
 16 30  1  0
 17 31  1  0
 19 32  1  0
 19 33  1  0
M  END
$$$$
