
     RDKit          3D

 27 26  0  0  0  0  0  0  0  0999 V2000
   -2.8044    1.2841    1.7151 N   0  0  0  0  0  0  0  0  0  0  0  0
   -1.9689    1.4361    0.5191 C   0  0  1  0  0  0  0  0  0  0  0  0
   -0.6132    0.7202    0.6873 C   0  0  0  0  0  0  0  0  0  0  0  0
   -0.7233   -0.8060    0.8578 C   0  0  0  0  0  0  0  0  0  0  0  0
    0.6515   -1.4729    0.9817 C   0  0  0  0  0  0  0  0  0  0  0  0
    1.3859   -1.3967   -0.2834 N   0  0  0  0  0  0  0  0  0  0  0  0
    2.5573   -0.5933   -0.5208 C   0  0  0  0  0  0  0  0  0  0  0  0
    2.8790    0.3942    0.2578 N   0  0  0  0  0  0  0  0  0  0  0  0
    3.3653   -0.8663   -1.6695 N   0  0  0  0  0  0  0  0  0  0  0  0
    4.4563   -0.1124   -1.9472 O   0  0  0  0  0  0  0  0  0  0  0  0
   -2.6849    1.0008   -0.7361 C   0  0  0  0  0  0  0  0  0  0  0  0
   -2.3741    1.6119   -1.9469 O   0  0  0  0  0  0  0  0  0  0  0  0
   -3.5278    0.0634   -0.7084 O   0  0  0  0  0  0  0  0  0  0  0  0
   -3.1745    0.3085    1.7779 H   0  0  0  0  0  0  0  0  0  0  0  0
   -3.6317    1.9180    1.6229 H   0  0  0  0  0  0  0  0  0  0  0  0
   -1.7424    2.5199    0.4056 H   0  0  0  0  0  0  0  0  0  0  0  0
   -0.0984    1.1464    1.5761 H   0  0  0  0  0  0  0  0  0  0  0  0
    0.0134    0.9477   -0.2027 H   0  0  0  0  0  0  0  0  0  0  0  0
   -1.2965   -1.0359    1.7806 H   0  0  0  0  0  0  0  0  0  0  0  0
   -1.2621   -1.2530   -0.0049 H   0  0  0  0  0  0  0  0  0  0  0  0
    0.4967   -2.5454    1.2286 H   0  0  0  0  0  0  0  0  0  0  0  0
    1.2271   -1.0437    1.8266 H   0  0  0  0  0  0  0  0  0  0  0  0
    1.0537   -2.0117   -1.0603 H   0  0  0  0  0  0  0  0  0  0  0  0
    2.3300    0.6835    1.0943 H   0  0  0  0  0  0  0  0  0  0  0  0
    3.1061   -1.6434   -2.3175 H   0  0  0  0  0  0  0  0  0  0  0  0
    5.2079   -0.5785   -1.4993 H   0  0  0  0  0  0  0  0  0  0  0  0
   -2.8282    1.3245   -2.8056 H   0  0  0  0  0  0  0  0  0  0  0  0
  1  2  1  0
  2  3  1  0
  3  4  1  0
  4  5  1  0
  5  6  1  0
  6  7  1  0
  7  8  2  3
  7  9  1  0
  9 10  1  0
  2 11  1  0
 11 12  1  0
 11 13  2  0
  1 14  1  0
  1 15  1  0
  2 16  1  6
  3 17  1  0
  3 18  1  0
  4 19  1  0
  4 20  1  0
  5 21  1  0
  5 22  1  0
  6 23  1  0
  8 24  1  0
  9 25  1  0
 10 26  1  0
 12 27  1  0
M  END
$$$$
