
     RDKit          3D

 50 50  0  0  0  0  0  0  0  0999 V2000
    6.8938    2.8530   -0.7051 C   0  0  0  0  0  0  0  0  0  0  0  0
    6.2697    1.7825    0.1851 C   0  0  0  0  0  0  0  0  0  0  0  0
    5.9589    0.5106   -0.6147 C   0  0  0  0  0  0  0  0  0  0  0  0
    5.3539   -0.5804    0.2691 C   0  0  0  0  0  0  0  0  0  0  0  0
    4.0904   -0.1486    0.7750 O   0  0  0  0  0  0  0  0  0  0  0  0
    2.9459   -0.9567    0.8153 C   0  0  0  0  0  0  0  0  0  0  0  0
    2.9549   -2.2794    1.3164 C   0  0  0  0  0  0  0  0  0  0  0  0
    4.1032   -2.8269    1.9727 N   0  0  0  0  0  0  0  0  0  0  0  0
    1.7882   -3.0523    1.2346 C   0  0  0  0  0  0  0  0  0  0  0  0
    0.6125   -2.5136    0.7090 C   0  0  0  0  0  0  0  0  0  0  0  0
    0.5783   -1.1849    0.2598 C   0  0  0  0  0  0  0  0  0  0  0  0
    1.7519   -0.4143    0.3236 C   0  0  0  0  0  0  0  0  0  0  0  0
   -0.6748   -0.6110   -0.2786 C   0  0  0  0  0  0  0  0  0  0  0  0
   -0.7012    0.5846   -0.6825 O   0  0  0  0  0  0  0  0  0  0  0  0
   -1.8302   -1.4007   -0.3449 O   0  0  0  0  0  0  0  0  0  0  0  0
   -3.0939   -0.9120   -0.7909 C   0  0  0  0  0  0  0  0  0  0  0  0
   -3.7608   -0.0703    0.3010 C   0  0  0  0  0  0  0  0  0  0  0  0
   -5.0668    0.4410   -0.1765 N   0  0  0  0  0  0  0  0  0  0  0  0
   -6.1523   -0.5302    0.0928 C   0  0  0  0  0  0  0  0  0  0  0  0
   -7.2307   -0.4295   -0.9824 C   0  0  0  0  0  0  0  0  0  0  0  0
   -5.3737    1.7635    0.4157 C   0  0  0  0  0  0  0  0  0  0  0  0
   -4.7473    2.8760   -0.4207 C   0  0  0  0  0  0  0  0  0  0  0  0
    6.1964    3.1272   -1.5252 H   0  0  0  0  0  0  0  0  0  0  0  0
    7.8469    2.4849   -1.1413 H   0  0  0  0  0  0  0  0  0  0  0  0
    7.1067    3.7605   -0.1017 H   0  0  0  0  0  0  0  0  0  0  0  0
    6.9765    1.5439    1.0096 H   0  0  0  0  0  0  0  0  0  0  0  0
    5.3347    2.1880    0.6291 H   0  0  0  0  0  0  0  0  0  0  0  0
    5.2481    0.7469   -1.4369 H   0  0  0  0  0  0  0  0  0  0  0  0
    6.8969    0.1211   -1.0675 H   0  0  0  0  0  0  0  0  0  0  0  0
    6.0461   -0.7966    1.1094 H   0  0  0  0  0  0  0  0  0  0  0  0
    5.2328   -1.5017   -0.3428 H   0  0  0  0  0  0  0  0  0  0  0  0
    4.1411   -3.8425    2.2137 H   0  0  0  0  0  0  0  0  0  0  0  0
    4.8442   -2.2127    2.3714 H   0  0  0  0  0  0  0  0  0  0  0  0
    1.7817   -4.0690    1.6075 H   0  0  0  0  0  0  0  0  0  0  0  0
   -0.2736   -3.1347    0.6706 H   0  0  0  0  0  0  0  0  0  0  0  0
    1.7549    0.6073   -0.0368 H   0  0  0  0  0  0  0  0  0  0  0  0
   -3.7347   -1.7838   -1.0357 H   0  0  0  0  0  0  0  0  0  0  0  0
   -2.9684   -0.3120   -1.7188 H   0  0  0  0  0  0  0  0  0  0  0  0
   -3.0690    0.7634    0.5498 H   0  0  0  0  0  0  0  0  0  0  0  0
   -3.8765   -0.6732    1.2307 H   0  0  0  0  0  0  0  0  0  0  0  0
   -6.6011   -0.3698    1.0996 H   0  0  0  0  0  0  0  0  0  0  0  0
   -5.7749   -1.5766    0.0729 H   0  0  0  0  0  0  0  0  0  0  0  0
   -8.0130   -1.1959   -0.7987 H   0  0  0  0  0  0  0  0  0  0  0  0
   -7.7095    0.5713   -0.9721 H   0  0  0  0  0  0  0  0  0  0  0  0
   -6.7843   -0.6076   -1.9837 H   0  0  0  0  0  0  0  0  0  0  0  0
   -5.0165    1.8299    1.4687 H   0  0  0  0  0  0  0  0  0  0  0  0
   -6.4695    1.9539    0.4360 H   0  0  0  0  0  0  0  0  0  0  0  0
   -5.1193    2.8187   -1.4657 H   0  0  0  0  0  0  0  0  0  0  0  0
   -5.0259    3.8635    0.0040 H   0  0  0  0  0  0  0  0  0  0  0  0
   -3.6408    2.7949   -0.4255 H   0  0  0  0  0  0  0  0  0  0  0  0
  1  2  1  0
  2  3  1  0
  3  4  1  0
  4  5  1  0
  5  6  1  0
  6  7  2  0
  7  8  1  0
  7  9  1  0
  9 10  2  0
 10 11  1  0
 11 12  2  0
 11 13  1  0
 13 14  2  0
 13 15  1  0
 15 16  1  0
 16 17  1  0
 17 18  1  0
 18 19  1  0
 19 20  1  0
 18 21  1  0
 21 22  1  0
 12  6  1  0
  1 23  1  0
  1 24  1  0
  1 25  1  0
  2 26  1  0
  2 27  1  0
  3 28  1  0
  3 29  1  0
  4 30  1  0
  4 31  1  0
  8 32  1  0
  8 33  1  0
  9 34  1  0
 10 35  1  0
 12 36  1  0
 16 37  1  0
 16 38  1  0
 17 39  1  0
 17 40  1  0
 19 41  1  0
 19 42  1  0
 20 43  1  0
 20 44  1  0
 20 45  1  0
 21 46  1  0
 21 47  1  0
 22 48  1  0
 22 49  1  0
 22 50  1  0
M  END
$$$$
