
     RDKit          3D

 45 48  0  0  0  0  0  0  0  0999 V2000
    6.4191   -1.6295    2.0637 C   0  0  0  0  0  0  0  0  0  0  0  0
    6.7432   -1.6247    0.3128 S   0  0  0  0  0  6  0  0  0  0  0  0
    8.1786   -2.0109    0.0930 O   0  0  0  0  0  0  0  0  0  0  0  0
    5.8636   -2.6216   -0.3880 O   0  0  0  0  0  0  0  0  0  0  0  0
    6.4842   -0.0374   -0.3413 N   0  0  0  0  0  0  0  0  0  0  0  0
    5.2199    0.6513   -0.3390 C   0  0  0  0  0  0  0  0  0  0  0  0
    4.0175    0.0090    0.0157 C   0  0  0  0  0  0  0  0  0  0  0  0
    2.7983    0.7042   -0.0062 C   0  0  0  0  0  0  0  0  0  0  0  0
    1.5935    0.0257    0.3878 N   0  0  0  0  0  0  0  0  0  0  0  0
    0.3058    0.2625   -0.1987 C   0  0  0  0  0  0  0  0  0  0  0  0
   -0.8033   -0.2648    0.3853 N   0  0  0  0  0  0  0  0  0  0  0  0
   -2.0404   -0.0971   -0.1542 C   0  0  0  0  0  0  0  0  0  0  0  0
   -3.1783   -0.6560    0.5214 N   0  0  0  0  0  0  0  0  0  0  0  0
   -4.4794   -0.7807   -0.0694 C   0  0  0  0  0  0  0  0  0  0  0  0
   -4.7072   -1.5255   -1.2547 C   0  0  0  0  0  0  0  0  0  0  0  0
   -3.4057   -2.3987   -2.0526 Cl  0  0  0  0  0  0  0  0  0  0  0  0
   -6.0144   -1.6236   -1.7860 C   0  0  0  0  0  0  0  0  0  0  0  0
   -7.0971   -1.0010   -1.1400 C   0  0  0  0  0  0  0  0  0  0  0  0
   -6.8376   -0.3008    0.0335 C   0  0  0  0  0  0  0  0  0  0  0  0
   -5.5864   -0.1994    0.5494 C   0  0  0  0  0  0  0  0  0  0  0  0
   -5.6293    0.5483    1.7111 O   0  0  0  0  0  0  0  0  0  0  0  0
   -6.9903    0.9391    1.9385 C   0  0  0  0  0  0  0  0  0  0  0  0
   -7.7276    0.3767    0.8443 O   0  0  0  0  0  0  0  0  0  0  0  0
   -2.1757    0.6499   -1.3343 C   0  0  0  0  0  0  0  0  0  0  0  0
   -1.0285    1.1711   -1.9291 C   0  0  0  0  0  0  0  0  0  0  0  0
    0.1853    0.9648   -1.3580 N   0  0  0  0  0  0  0  0  0  0  0  0
    2.7892    2.0654   -0.3534 C   0  0  0  0  0  0  0  0  0  0  0  0
    3.9755    2.7068   -0.7126 C   0  0  0  0  0  0  0  0  0  0  0  0
    5.1817    2.0037   -0.7123 C   0  0  0  0  0  0  0  0  0  0  0  0
    6.6423   -2.6340    2.4787 H   0  0  0  0  0  0  0  0  0  0  0  0
    7.0643   -0.8757    2.5601 H   0  0  0  0  0  0  0  0  0  0  0  0
    5.3559   -1.3834    2.2574 H   0  0  0  0  0  0  0  0  0  0  0  0
    7.3286    0.4628   -0.6993 H   0  0  0  0  0  0  0  0  0  0  0  0
    4.0077   -1.0338    0.2939 H   0  0  0  0  0  0  0  0  0  0  0  0
    1.6697   -0.7470    1.0878 H   0  0  0  0  0  0  0  0  0  0  0  0
   -3.0804   -0.8826    1.5368 H   0  0  0  0  0  0  0  0  0  0  0  0
   -6.1906   -2.1927   -2.6897 H   0  0  0  0  0  0  0  0  0  0  0  0
   -8.1014   -1.0730   -1.5361 H   0  0  0  0  0  0  0  0  0  0  0  0
   -7.3534    0.5205    2.9005 H   0  0  0  0  0  0  0  0  0  0  0  0
   -7.0775    2.0458    1.9305 H   0  0  0  0  0  0  0  0  0  0  0  0
   -3.1429    0.8316   -1.7840 H   0  0  0  0  0  0  0  0  0  0  0  0
   -1.1024    1.7424   -2.8447 H   0  0  0  0  0  0  0  0  0  0  0  0
    1.8722    2.6386   -0.3251 H   0  0  0  0  0  0  0  0  0  0  0  0
    3.9617    3.7547   -0.9834 H   0  0  0  0  0  0  0  0  0  0  0  0
    6.0923    2.5186   -0.9919 H   0  0  0  0  0  0  0  0  0  0  0  0
  1  2  1  0
  2  3  2  0
  2  4  2  0
  2  5  1  0
  5  6  1  0
  6  7  2  0
  7  8  1  0
  8  9  1  0
  9 10  1  0
 10 11  2  0
 11 12  1  0
 12 13  1  0
 13 14  1  0
 14 15  2  0
 15 16  1  0
 15 17  1  0
 17 18  2  0
 18 19  1  0
 19 20  2  0
 20 21  1  0
 21 22  1  0
 22 23  1  0
 12 24  2  0
 24 25  1  0
 25 26  2  0
  8 27  2  0
 27 28  1  0
 28 29  2  0
 29  6  1  0
 26 10  1  0
 20 14  1  0
 23 19  1  0
  1 30  1  0
  1 31  1  0
  1 32  1  0
  5 33  1  0
  7 34  1  0
  9 35  1  0
 13 36  1  0
 17 37  1  0
 18 38  1  0
 22 39  1  0
 22 40  1  0
 24 41  1  0
 25 42  1  0
 27 43  1  0
 28 44  1  0
 29 45  1  0
M  END
$$$$
