
     RDKit          3D

 33 36  0  0  0  0  0  0  0  0999 V2000
    5.5947   -1.4803   -0.1387 O   0  0  0  0  0  1  0  0  0  0  0  0
    5.3579   -0.1275   -0.2259 N   0  0  0  0  0  4  0  0  0  0  0  0
    6.3319    0.6500   -0.3019 O   0  0  0  0  0  0  0  0  0  0  0  0
    4.0114    0.3802   -0.2294 C   0  0  0  0  0  0  0  0  0  0  0  0
    2.9160   -0.5110   -0.1428 C   0  0  0  0  0  0  0  0  0  0  0  0
    1.6271    0.0233   -0.1485 C   0  0  0  0  0  0  0  0  0  0  0  0
    1.4052    1.3732   -0.2362 C   0  0  0  0  0  0  0  0  0  0  0  0
    0.0893    1.6514   -0.2265 N   0  0  0  0  0  0  0  0  0  0  0  0
   -0.5412    0.4561   -0.1217 C   0  0  0  0  0  0  0  0  0  0  0  0
    0.3843   -0.5775   -0.0795 C   0  0  0  0  0  0  0  0  0  0  0  0
    0.0514   -2.0272    0.0079 C   0  0  0  0  0  0  0  0  0  0  0  0
   -0.7048   -2.2658    1.2732 C   0  0  0  0  0  0  0  0  0  0  0  0
   -0.2312   -3.0619    2.1277 O   0  0  0  0  0  0  0  0  0  0  0  0
   -1.9567   -1.6141    1.5408 N   0  0  0  0  0  0  0  0  0  0  0  0
   -2.6593   -0.7299    0.6422 C   0  0  0  0  0  0  0  0  0  0  0  0
   -2.0106    0.2848   -0.1168 C   0  0  0  0  0  0  0  0  0  0  0  0
   -2.7884    1.1648   -0.8920 C   0  0  0  0  0  0  0  0  0  0  0  0
   -4.1785    1.0521   -0.9208 C   0  0  0  0  0  0  0  0  0  0  0  0
   -4.8143    0.0667   -0.1700 C   0  0  0  0  0  0  0  0  0  0  0  0
   -4.0620   -0.8104    0.6113 C   0  0  0  0  0  0  0  0  0  0  0  0
    2.4554    2.2823   -0.3233 C   0  0  0  0  0  0  0  0  0  0  0  0
    3.7676    1.7778   -0.3193 C   0  0  0  0  0  0  0  0  0  0  0  0
    3.0677   -1.5794   -0.0725 H   0  0  0  0  0  0  0  0  0  0  0  0
   -0.3485    2.5985   -0.2759 H   0  0  0  0  0  0  0  0  0  0  0  0
    0.9725   -2.6467   -0.0148 H   0  0  0  0  0  0  0  0  0  0  0  0
   -0.5791   -2.3160   -0.8595 H   0  0  0  0  0  0  0  0  0  0  0  0
   -2.4662   -1.9269    2.3986 H   0  0  0  0  0  0  0  0  0  0  0  0
   -2.3191    1.9344   -1.4921 H   0  0  0  0  0  0  0  0  0  0  0  0
   -4.7640    1.7323   -1.5259 H   0  0  0  0  0  0  0  0  0  0  0  0
   -5.8935   -0.0145   -0.1880 H   0  0  0  0  0  0  0  0  0  0  0  0
   -4.5754   -1.5611    1.1994 H   0  0  0  0  0  0  0  0  0  0  0  0
    2.2689    3.3463   -0.3924 H   0  0  0  0  0  0  0  0  0  0  0  0
    4.5918    2.4760   -0.3865 H   0  0  0  0  0  0  0  0  0  0  0  0
  1  2  1  0
  2  3  2  0
  2  4  1  0
  4  5  2  0
  5  6  1  0
  6  7  2  0
  7  8  1  0
  8  9  1  0
  9 10  2  0
 10 11  1  0
 11 12  1  0
 12 13  2  0
 12 14  1  0
 14 15  1  0
 15 16  2  0
 16 17  1  0
 17 18  2  0
 18 19  1  0
 19 20  2  0
  7 21  1  0
 21 22  2  0
 22  4  1  0
 10  6  1  0
 20 15  1  0
 16  9  1  0
  5 23  1  0
  8 24  1  0
 11 25  1  0
 11 26  1  0
 14 27  1  0
 17 28  1  0
 18 29  1  0
 19 30  1  0
 20 31  1  0
 21 32  1  0
 22 33  1  0
M  CHG  2   1  -1   2   1
M  END
$$$$
