
     RDKit          3D

 75 76  0  0  0  0  0  0  0  0999 V2000
    1.4196    0.0191    0.7379 C   0  0  2  0  0  0  0  0  0  0  0  0
    1.3375    1.1153    1.8203 C   0  0  0  0  0  0  0  0  0  0  0  0
    1.5271    2.5094    1.2592 C   0  0  0  0  0  0  0  0  0  0  0  0
    0.5726    3.4595    1.1119 C   0  0  0  0  0  0  0  0  0  0  0  0
    0.9896    4.7815    0.5161 C   0  0  0  0  0  0  0  0  0  0  0  0
   -0.8881    3.2635    1.4811 C   0  0  0  0  0  0  0  0  0  0  0  0
   -1.6365    2.5250    0.3598 C   0  0  0  0  0  0  0  0  0  0  0  0
   -3.1771    2.6147    0.4688 C   0  0  0  0  0  0  0  0  0  0  0  0
   -3.9000    1.4239    1.1583 C   0  0  2  0  0  0  0  0  0  0  0  0
   -3.2401    0.9788    2.4792 C   0  0  0  0  0  0  0  0  0  0  0  0
   -4.4506    0.2906    0.2083 C   0  0  2  0  0  0  0  0  0  0  0  0
   -5.2363   -0.6137    0.9465 O   0  0  0  0  0  0  0  0  0  0  0  0
   -3.5461   -0.4920   -0.8125 C   0  0  1  0  0  0  0  0  0  0  0  0
   -2.9716    0.3713   -1.9471 C   0  0  0  0  0  0  0  0  0  0  0  0
   -2.4725   -1.3743   -0.1931 C   0  0  0  0  0  0  0  0  0  0  0  0
   -1.7604   -0.8927    0.6682 O   0  0  0  0  0  0  0  0  0  0  0  0
   -2.2723   -2.8528   -0.5781 C   0  0  0  0  0  0  0  0  0  0  0  0
   -2.2220   -3.0103   -2.1180 C   0  0  0  0  0  0  0  0  0  0  0  0
   -3.4737   -3.6571   -0.0338 C   0  0  0  0  0  0  0  0  0  0  0  0
   -0.9512   -3.4112    0.0785 C   0  0  1  0  0  0  0  0  0  0  0  0
   -0.8448   -4.8102   -0.0532 O   0  0  0  0  0  0  0  0  0  0  0  0
    0.3563   -2.7110   -0.4076 C   0  0  0  0  0  0  0  0  0  0  0  0
    1.3059   -2.4994    0.7438 C   0  0  0  0  0  0  0  0  0  0  0  0
    1.8998   -3.5005    1.2240 O   0  0  0  0  0  0  0  0  0  0  0  0
    1.4645   -1.2590    1.3821 O   0  0  0  0  0  0  0  0  0  0  0  0
    2.6359    0.1813   -0.1597 C   0  0  0  0  0  0  0  0  0  0  0  0
    2.4195    0.4798   -1.6231 C   0  0  0  0  0  0  0  0  0  0  0  0
    3.8682   -0.0014    0.3595 C   0  0  0  0  0  0  0  0  0  0  0  0
    5.1323    0.1129   -0.3913 C   0  0  0  0  0  0  0  0  0  0  0  0
    5.4592    1.1823   -1.2268 C   0  0  0  0  0  0  0  0  0  0  0  0
    7.0274    0.9421   -1.7838 S   0  0  0  0  0  0  0  0  0  0  0  0
    7.2217   -0.5015   -0.9480 C   0  0  0  0  0  0  0  0  0  0  0  0
    8.4823   -1.2950   -0.9027 C   0  0  0  0  0  0  0  0  0  0  0  0
    6.1255   -0.8011   -0.2192 N   0  0  0  0  0  0  0  0  0  0  0  0
    0.4952    0.1072    0.1416 H   0  0  0  0  0  0  0  0  0  0  0  0
    0.3771    1.0103    2.3617 H   0  0  0  0  0  0  0  0  0  0  0  0
    2.1369    0.9447    2.5729 H   0  0  0  0  0  0  0  0  0  0  0  0
    2.5390    2.7514    0.9418 H   0  0  0  0  0  0  0  0  0  0  0  0
    1.7338    5.2735    1.1776 H   0  0  0  0  0  0  0  0  0  0  0  0
    0.1259    5.4670    0.3886 H   0  0  0  0  0  0  0  0  0  0  0  0
    1.4447    4.6162   -0.4838 H   0  0  0  0  0  0  0  0  0  0  0  0
   -0.9868    2.7405    2.4522 H   0  0  0  0  0  0  0  0  0  0  0  0
   -1.3550    4.2600    1.6337 H   0  0  0  0  0  0  0  0  0  0  0  0
   -1.3039    1.4775    0.3429 H   0  0  0  0  0  0  0  0  0  0  0  0
   -1.3412    2.9809   -0.6116 H   0  0  0  0  0  0  0  0  0  0  0  0
   -3.6027    2.7479   -0.5476 H   0  0  0  0  0  0  0  0  0  0  0  0
   -3.4473    3.5514    1.0049 H   0  0  0  0  0  0  0  0  0  0  0  0
   -4.8471    1.8883    1.5217 H   0  0  0  0  0  0  0  0  0  0  0  0
   -3.8240    0.1787    2.9765 H   0  0  0  0  0  0  0  0  0  0  0  0
   -3.2156    1.8398    3.1812 H   0  0  0  0  0  0  0  0  0  0  0  0
   -2.1982    0.6422    2.3572 H   0  0  0  0  0  0  0  0  0  0  0  0
   -5.1803    0.8225   -0.4435 H   0  0  0  0  0  0  0  0  0  0  0  0
   -4.6240   -1.2469    1.4008 H   0  0  0  0  0  0  0  0  0  0  0  0
   -4.2623   -1.1657   -1.3280 H   0  0  0  0  0  0  0  0  0  0  0  0
   -2.7454   -0.2647   -2.8279 H   0  0  0  0  0  0  0  0  0  0  0  0
   -3.7057    1.1342   -2.2797 H   0  0  0  0  0  0  0  0  0  0  0  0
   -2.0248    0.8605   -1.6642 H   0  0  0  0  0  0  0  0  0  0  0  0
   -1.4105   -2.3951   -2.5587 H   0  0  0  0  0  0  0  0  0  0  0  0
   -3.1789   -2.7045   -2.5882 H   0  0  0  0  0  0  0  0  0  0  0  0
   -2.0593   -4.0673   -2.4108 H   0  0  0  0  0  0  0  0  0  0  0  0
   -3.3855   -4.7323   -0.2990 H   0  0  0  0  0  0  0  0  0  0  0  0
   -4.4326   -3.2913   -0.4565 H   0  0  0  0  0  0  0  0  0  0  0  0
   -3.5287   -3.5743    1.0732 H   0  0  0  0  0  0  0  0  0  0  0  0
   -1.0538   -3.2267    1.1728 H   0  0  0  0  0  0  0  0  0  0  0  0
   -0.6199   -5.0204   -0.9950 H   0  0  0  0  0  0  0  0  0  0  0  0
    0.1368   -1.7523   -0.9089 H   0  0  0  0  0  0  0  0  0  0  0  0
    0.8668   -3.3275   -1.1781 H   0  0  0  0  0  0  0  0  0  0  0  0
    3.0439   -0.1888   -2.2527 H   0  0  0  0  0  0  0  0  0  0  0  0
    2.6633    1.5399   -1.8341 H   0  0  0  0  0  0  0  0  0  0  0  0
    1.3620    0.3187   -1.9186 H   0  0  0  0  0  0  0  0  0  0  0  0
    3.9559   -0.3281    1.3889 H   0  0  0  0  0  0  0  0  0  0  0  0
    4.8497    2.0493   -1.4362 H   0  0  0  0  0  0  0  0  0  0  0  0
    8.2528   -2.3597   -0.6876 H   0  0  0  0  0  0  0  0  0  0  0  0
    9.0058   -1.2305   -1.8795 H   0  0  0  0  0  0  0  0  0  0  0  0
    9.1424   -0.8945   -0.1058 H   0  0  0  0  0  0  0  0  0  0  0  0
  1  2  1  0
  2  3  1  0
  3  4  2  0
  4  5  1  0
  4  6  1  0
  6  7  1  0
  7  8  1  0
  8  9  1  0
  9 10  1  0
  9 11  1  0
 11 12  1  0
 11 13  1  0
 13 14  1  0
 13 15  1  0
 15 16  2  0
 15 17  1  0
 17 18  1  0
 17 19  1  0
 17 20  1  0
 20 21  1  0
 20 22  1  0
 22 23  1  0
 23 24  2  0
 23 25  1  0
  1 26  1  0
 26 27  1  0
 26 28  2  0
 28 29  1  0
 29 30  2  0
 30 31  1  0
 31 32  1  0
 32 33  1  0
 32 34  2  0
 25  1  1  0
 34 29  1  0
  1 35  1  6
  2 36  1  0
  2 37  1  0
  3 38  1  0
  5 39  1  0
  5 40  1  0
  5 41  1  0
  6 42  1  0
  6 43  1  0
  7 44  1  0
  7 45  1  0
  8 46  1  0
  8 47  1  0
  9 48  1  1
 10 49  1  0
 10 50  1  0
 10 51  1  0
 11 52  1  6
 12 53  1  0
 13 54  1  6
 14 55  1  0
 14 56  1  0
 14 57  1  0
 18 58  1  0
 18 59  1  0
 18 60  1  0
 19 61  1  0
 19 62  1  0
 19 63  1  0
 20 64  1  1
 21 65  1  0
 22 66  1  0
 22 67  1  0
 27 68  1  0
 27 69  1  0
 27 70  1  0
 28 71  1  0
 30 72  1  0
 33 73  1  0
 33 74  1  0
 33 75  1  0
M  END
$$$$
