
     RDKit          3D

 44 47  0  0  0  0  0  0  0  0999 V2000
   -0.4815   -5.9615    0.6980 C   0  0  0  0  0  0  0  0  0  0  0  0
   -1.2925   -5.1315   -0.1272 O   0  0  0  0  0  0  0  0  0  0  0  0
   -1.2444   -3.7296   -0.1304 C   0  0  0  0  0  0  0  0  0  0  0  0
   -2.0982   -3.0365   -0.9957 C   0  0  0  0  0  0  0  0  0  0  0  0
   -2.0858   -1.6395   -1.0389 C   0  0  0  0  0  0  0  0  0  0  0  0
   -1.2067   -0.9126   -0.2223 C   0  0  0  0  0  0  0  0  0  0  0  0
   -0.3625   -1.6047    0.6611 C   0  0  0  0  0  0  0  0  0  0  0  0
   -0.3746   -3.0018    0.7035 C   0  0  0  0  0  0  0  0  0  0  0  0
   -1.2103    0.5658   -0.2673 C   0  0  0  0  0  0  0  0  0  0  0  0
   -0.1296    1.4339   -0.1667 C   0  0  0  0  0  0  0  0  0  0  0  0
   -0.5836    2.7040   -0.1372 N   0  0  0  0  0  0  0  0  0  0  0  0
   -1.9247    2.5839   -0.2318 C   0  0  0  0  0  0  0  0  0  0  0  0
   -2.3337    1.3021   -0.3187 N   0  0  0  0  0  0  0  0  0  0  0  0
   -2.8324    3.7410   -0.2299 C   0  0  0  0  0  0  0  0  0  0  0  0
   -4.2194    3.7064   -0.3261 C   0  0  0  0  0  0  0  0  0  0  0  0
   -4.8061    4.9776   -0.2969 C   0  0  0  0  0  0  0  0  0  0  0  0
   -3.8891    6.0138   -0.1783 C   0  0  0  0  0  0  0  0  0  0  0  0
   -2.3472    5.3472   -0.1099 S   0  0  0  0  0  0  0  0  0  0  0  0
    1.3108    1.1005   -0.1596 C   0  0  0  0  0  0  0  0  0  0  0  0
    1.8199    0.0662   -0.9624 C   0  0  0  0  0  0  0  0  0  0  0  0
    3.1862   -0.2289   -0.9549 C   0  0  0  0  0  0  0  0  0  0  0  0
    4.0696    0.5191   -0.1539 C   0  0  0  0  0  0  0  0  0  0  0  0
    5.4476    0.2606   -0.1095 O   0  0  0  0  0  0  0  0  0  0  0  0
    6.0962   -0.7692   -0.8485 C   0  0  0  0  0  0  0  0  0  0  0  0
    3.5631    1.5638    0.6271 C   0  0  0  0  0  0  0  0  0  0  0  0
    2.1968    1.8587    0.6205 C   0  0  0  0  0  0  0  0  0  0  0  0
   -0.6845   -5.7500    1.7691 H   0  0  0  0  0  0  0  0  0  0  0  0
    0.5924   -5.7922    0.4715 H   0  0  0  0  0  0  0  0  0  0  0  0
   -0.7245   -7.0242    0.4935 H   0  0  0  0  0  0  0  0  0  0  0  0
   -2.7749   -3.5843   -1.6393 H   0  0  0  0  0  0  0  0  0  0  0  0
   -2.7521   -1.1268   -1.7216 H   0  0  0  0  0  0  0  0  0  0  0  0
    0.2984   -1.0651    1.3277 H   0  0  0  0  0  0  0  0  0  0  0  0
    0.2913   -3.5050    1.3910 H   0  0  0  0  0  0  0  0  0  0  0  0
   -3.3149    0.9487   -0.3692 H   0  0  0  0  0  0  0  0  0  0  0  0
   -4.7980    2.7970   -0.4156 H   0  0  0  0  0  0  0  0  0  0  0  0
   -5.8740    5.1379   -0.3609 H   0  0  0  0  0  0  0  0  0  0  0  0
   -4.1286    7.0677   -0.1374 H   0  0  0  0  0  0  0  0  0  0  0  0
    1.1647   -0.5050   -1.6074 H   0  0  0  0  0  0  0  0  0  0  0  0
    3.5455   -1.0350   -1.5798 H   0  0  0  0  0  0  0  0  0  0  0  0
    5.9573   -0.6030   -1.9377 H   0  0  0  0  0  0  0  0  0  0  0  0
    7.1818   -0.7495   -0.6218 H   0  0  0  0  0  0  0  0  0  0  0  0
    5.6901   -1.7612   -0.5582 H   0  0  0  0  0  0  0  0  0  0  0  0
    4.2328    2.1507    1.2430 H   0  0  0  0  0  0  0  0  0  0  0  0
    1.8292    2.6709    1.2357 H   0  0  0  0  0  0  0  0  0  0  0  0
  1  2  1  0
  2  3  1  0
  3  4  2  0
  4  5  1  0
  5  6  2  0
  6  7  1  0
  7  8  2  0
  6  9  1  0
  9 10  2  0
 10 11  1  0
 11 12  2  0
 12 13  1  0
 12 14  1  0
 14 15  2  0
 15 16  1  0
 16 17  2  0
 17 18  1  0
 10 19  1  0
 19 20  2  0
 20 21  1  0
 21 22  2  0
 22 23  1  0
 23 24  1  0
 22 25  1  0
 25 26  2  0
  8  3  1  0
 13  9  1  0
 18 14  1  0
 26 19  1  0
  1 27  1  0
  1 28  1  0
  1 29  1  0
  4 30  1  0
  5 31  1  0
  7 32  1  0
  8 33  1  0
 13 34  1  0
 15 35  1  0
 16 36  1  0
 17 37  1  0
 20 38  1  0
 21 39  1  0
 24 40  1  0
 24 41  1  0
 24 42  1  0
 25 43  1  0
 26 44  1  0
M  END
$$$$
