
     RDKit          3D

 33 34  0  0  0  0  0  0  0  0999 V2000
   -4.4838   -0.6455   -0.0180 C   0  0  0  0  0  0  0  0  0  0  0  0
   -3.1184   -0.2662    0.4953 C   0  0  0  0  0  0  0  0  0  0  0  0
   -1.9681   -0.2989   -0.3386 C   0  0  0  0  0  0  0  0  0  0  0  0
   -2.0674   -0.7382   -1.7824 C   0  0  0  0  0  0  0  0  0  0  0  0
   -0.7181    0.1179    0.1875 C   0  0  0  0  0  0  0  0  0  0  0  0
    0.4465    0.2085   -0.6559 N   0  0  0  0  0  0  0  0  0  0  0  0
    1.7777   -0.0841   -0.1957 C   0  0  0  0  0  0  0  0  0  0  0  0
    1.9909   -1.2036    0.6289 C   0  0  0  0  0  0  0  0  0  0  0  0
    3.2810   -1.5678    1.0146 C   0  0  0  0  0  0  0  0  0  0  0  0
    4.3761   -0.8276    0.5736 C   0  0  0  0  0  0  0  0  0  0  0  0
    4.1845    0.2863   -0.2456 C   0  0  0  0  0  0  0  0  0  0  0  0
    2.8894    0.6806   -0.6330 C   0  0  0  0  0  0  0  0  0  0  0  0
    2.7286    1.9105   -1.4458 C   0  0  0  0  0  0  0  0  0  0  0  0
    1.5482    2.6471   -1.3951 O   0  0  0  0  0  0  0  0  0  0  0  0
    3.6791    2.3220   -2.1649 O   0  0  0  0  0  0  0  0  0  0  0  0
   -0.6255    0.4976    1.5367 C   0  0  0  0  0  0  0  0  0  0  0  0
   -1.7483    0.4777    2.3586 C   0  0  0  0  0  0  0  0  0  0  0  0
   -2.9861    0.1032    1.8434 C   0  0  0  0  0  0  0  0  0  0  0  0
   -4.5302   -1.7424   -0.1823 H   0  0  0  0  0  0  0  0  0  0  0  0
   -4.6961   -0.1154   -0.9703 H   0  0  0  0  0  0  0  0  0  0  0  0
   -5.2831   -0.3677    0.7018 H   0  0  0  0  0  0  0  0  0  0  0  0
   -2.2069    0.1508   -2.4321 H   0  0  0  0  0  0  0  0  0  0  0  0
   -1.1511   -1.2820   -2.0940 H   0  0  0  0  0  0  0  0  0  0  0  0
   -2.9060   -1.4437   -1.9477 H   0  0  0  0  0  0  0  0  0  0  0  0
    0.3227    0.4800   -1.6569 H   0  0  0  0  0  0  0  0  0  0  0  0
    1.1554   -1.8111    0.9532 H   0  0  0  0  0  0  0  0  0  0  0  0
    3.4326   -2.4334    1.6464 H   0  0  0  0  0  0  0  0  0  0  0  0
    5.3767   -1.1148    0.8704 H   0  0  0  0  0  0  0  0  0  0  0  0
    5.0518    0.8543   -0.5595 H   0  0  0  0  0  0  0  0  0  0  0  0
    1.4392    3.4942   -1.9397 H   0  0  0  0  0  0  0  0  0  0  0  0
    0.3184    0.8301    1.9497 H   0  0  0  0  0  0  0  0  0  0  0  0
   -1.6622    0.7713    3.3969 H   0  0  0  0  0  0  0  0  0  0  0  0
   -3.8474    0.1102    2.5002 H   0  0  0  0  0  0  0  0  0  0  0  0
  1  2  1  0
  2  3  2  0
  3  4  1  0
  3  5  1  0
  5  6  1  0
  6  7  1  0
  7  8  2  0
  8  9  1  0
  9 10  2  0
 10 11  1  0
 11 12  2  0
 12 13  1  0
 13 14  1  0
 13 15  2  0
  5 16  2  0
 16 17  1  0
 17 18  2  0
 18  2  1  0
 12  7  1  0
  1 19  1  0
  1 20  1  0
  1 21  1  0
  4 22  1  0
  4 23  1  0
  4 24  1  0
  6 25  1  0
  8 26  1  0
  9 27  1  0
 10 28  1  0
 11 29  1  0
 14 30  1  0
 16 31  1  0
 17 32  1  0
 18 33  1  0
M  END
$$$$
