
     RDKit          3D

 35 37  0  0  0  0  0  0  0  0999 V2000
   -3.3123    1.8178    2.4740 C   0  0  0  0  0  0  0  0  0  0  0  0
   -2.1643    0.9493    1.9695 C   0  0  0  0  0  0  0  0  0  0  0  0
   -1.9463    1.1390    0.4658 C   0  0  0  0  0  0  0  0  0  0  0  0
   -0.8561    0.3376    0.0129 O   0  0  0  0  0  0  0  0  0  0  0  0
   -0.8935   -1.0478   -0.2055 C   0  0  0  0  0  0  0  0  0  0  0  0
    0.2755   -1.7399   -0.5530 C   0  0  0  0  0  0  0  0  0  0  0  0
    0.2597   -3.1028   -0.7085 C   0  0  0  0  0  0  0  0  0  0  0  0
    1.4778   -3.5908   -0.9836 N   0  0  0  0  0  0  0  0  0  0  0  0
    2.3029   -2.5220   -1.0084 C   0  0  0  0  0  0  0  0  0  0  0  0
    1.5963   -1.3457   -0.7513 C   0  0  0  0  0  0  0  0  0  0  0  0
    2.1699    0.0172   -0.7535 C   0  0  0  0  0  0  0  0  0  0  0  0
    1.4211    1.0719   -1.1722 N   0  0  0  0  0  0  0  0  0  0  0  0
    1.9264    2.3330   -1.2050 C   0  0  0  0  0  0  0  0  0  0  0  0
    1.1077    3.4179   -1.6349 N   0  0  0  0  0  0  0  0  0  0  0  0
    3.2117    2.5578   -0.8258 N   0  0  0  0  0  0  0  0  0  0  0  0
    4.0040    1.5356   -0.4126 C   0  0  0  0  0  0  0  0  0  0  0  0
    3.5003    0.2359   -0.3704 C   0  0  0  0  0  0  0  0  0  0  0  0
   -0.8707   -3.8381   -0.5747 N   0  0  0  0  0  0  0  0  0  0  0  0
   -2.0419   -3.2093   -0.2698 C   0  0  0  0  0  0  0  0  0  0  0  0
   -2.0782   -1.8126   -0.0785 C   0  0  0  0  0  0  0  0  0  0  0  0
   -3.4439    1.6626    3.5656 H   0  0  0  0  0  0  0  0  0  0  0  0
   -3.0933    2.8916    2.2917 H   0  0  0  0  0  0  0  0  0  0  0  0
   -4.2578    1.5432    1.9595 H   0  0  0  0  0  0  0  0  0  0  0  0
   -1.2340    1.2241    2.5122 H   0  0  0  0  0  0  0  0  0  0  0  0
   -2.3932   -0.1140    2.1919 H   0  0  0  0  0  0  0  0  0  0  0  0
   -2.8673    0.9097   -0.1116 H   0  0  0  0  0  0  0  0  0  0  0  0
   -1.6910    2.2030    0.2730 H   0  0  0  0  0  0  0  0  0  0  0  0
    1.7370   -4.5890   -1.1464 H   0  0  0  0  0  0  0  0  0  0  0  0
    3.3609   -2.5900   -1.2259 H   0  0  0  0  0  0  0  0  0  0  0  0
    1.4892    4.3894   -1.6635 H   0  0  0  0  0  0  0  0  0  0  0  0
    0.1171    3.2511   -1.9199 H   0  0  0  0  0  0  0  0  0  0  0  0
    5.0253    1.7325   -0.1151 H   0  0  0  0  0  0  0  0  0  0  0  0
    4.1321   -0.5761   -0.0334 H   0  0  0  0  0  0  0  0  0  0  0  0
   -2.9486   -3.7902   -0.1654 H   0  0  0  0  0  0  0  0  0  0  0  0
   -3.0225   -1.3518    0.1729 H   0  0  0  0  0  0  0  0  0  0  0  0
  1  2  1  0
  2  3  1  0
  3  4  1  0
  4  5  1  0
  5  6  2  0
  6  7  1  0
  7  8  1  0
  8  9  1  0
  9 10  2  0
 10 11  1  0
 11 12  2  0
 12 13  1  0
 13 14  1  0
 13 15  2  0
 15 16  1  0
 16 17  2  0
  7 18  2  0
 18 19  1  0
 19 20  2  0
 20  5  1  0
 10  6  1  0
 17 11  1  0
  1 21  1  0
  1 22  1  0
  1 23  1  0
  2 24  1  0
  2 25  1  0
  3 26  1  0
  3 27  1  0
  8 28  1  0
  9 29  1  0
 14 30  1  0
 14 31  1  0
 16 32  1  0
 17 33  1  0
 19 34  1  0
 20 35  1  0
M  END
$$$$
