
     RDKit          3D

 41 43  0  0  0  0  0  0  0  0999 V2000
   -3.9301    0.3048   -3.5981 C   0  0  0  0  0  0  0  0  0  0  0  0
   -3.8470    0.0047   -2.2230 O   0  0  0  0  0  0  0  0  0  0  0  0
   -2.4894   -0.1046   -1.8465 C   0  0  0  0  0  0  0  0  0  0  0  0
   -2.3994   -0.4437   -0.3496 C   0  0  0  0  0  0  0  0  0  0  0  0
   -2.9153    0.6905    0.5523 C   0  0  0  0  0  0  0  0  0  0  0  0
   -2.7602    0.3176    1.9062 O   0  0  0  0  0  0  0  0  0  0  0  0
   -3.1948    1.3708    2.7363 C   0  0  0  0  0  0  0  0  0  0  0  0
   -1.0348   -0.8602    0.0246 N   0  0  0  0  0  0  0  0  0  0  0  0
   -0.7102   -2.1162    0.4072 C   0  0  0  0  0  0  0  0  0  0  0  0
    0.6447   -2.2223    0.6650 C   0  0  0  0  0  0  0  0  0  0  0  0
    1.1768   -0.9612    0.4491 C   0  0  0  0  0  0  0  0  0  0  0  0
    0.1285   -0.1619    0.0297 C   0  0  0  0  0  0  0  0  0  0  0  0
    0.3476    1.1554   -0.3892 C   0  0  0  0  0  0  0  0  0  0  0  0
    1.6599    1.6434   -0.4067 C   0  0  0  0  0  0  0  0  0  0  0  0
    2.7328    0.8376    0.0172 C   0  0  0  0  0  0  0  0  0  0  0  0
    3.9982    1.3227   -0.0593 N   0  0  0  0  0  0  0  0  0  0  0  0
    5.0609    0.5795    0.3368 C   0  0  0  0  0  0  0  0  0  0  0  0
    6.3803    1.1087    0.2305 N   0  0  0  0  0  0  0  0  0  0  0  0
    4.8653   -0.6552    0.8647 N   0  0  0  0  0  0  0  0  0  0  0  0
    3.6244   -1.1973    0.9861 C   0  0  0  0  0  0  0  0  0  0  0  0
    3.4972   -2.4295    1.6974 N   0  0  0  0  0  0  0  0  0  0  0  0
    2.5040   -0.4767    0.5054 C   0  0  0  0  0  0  0  0  0  0  0  0
   -3.4769   -0.5024   -4.2157 H   0  0  0  0  0  0  0  0  0  0  0  0
   -3.4529    1.2839   -3.8262 H   0  0  0  0  0  0  0  0  0  0  0  0
   -5.0006    0.3805   -3.8790 H   0  0  0  0  0  0  0  0  0  0  0  0
   -1.9983   -0.9275   -2.4156 H   0  0  0  0  0  0  0  0  0  0  0  0
   -1.9528    0.8443   -2.0564 H   0  0  0  0  0  0  0  0  0  0  0  0
   -3.0846   -1.3069   -0.1825 H   0  0  0  0  0  0  0  0  0  0  0  0
   -2.3698    1.6326    0.3358 H   0  0  0  0  0  0  0  0  0  0  0  0
   -3.9933    0.8552    0.3236 H   0  0  0  0  0  0  0  0  0  0  0  0
   -3.0889    1.0535    3.7940 H   0  0  0  0  0  0  0  0  0  0  0  0
   -4.2682    1.6071    2.5619 H   0  0  0  0  0  0  0  0  0  0  0  0
   -2.5679    2.2790    2.5938 H   0  0  0  0  0  0  0  0  0  0  0  0
   -1.4156   -2.9353    0.4685 H   0  0  0  0  0  0  0  0  0  0  0  0
    1.1554   -3.1414    0.9059 H   0  0  0  0  0  0  0  0  0  0  0  0
   -0.4469    1.7948   -0.7335 H   0  0  0  0  0  0  0  0  0  0  0  0
    1.8464    2.6491   -0.7632 H   0  0  0  0  0  0  0  0  0  0  0  0
    6.5371    2.0628   -0.1636 H   0  0  0  0  0  0  0  0  0  0  0  0
    7.2022    0.5467    0.5449 H   0  0  0  0  0  0  0  0  0  0  0  0
    2.7024   -2.5804    2.3555 H   0  0  0  0  0  0  0  0  0  0  0  0
    4.3337   -3.0429    1.8157 H   0  0  0  0  0  0  0  0  0  0  0  0
  1  2  1  0
  2  3  1  0
  3  4  1  0
  4  5  1  0
  5  6  1  0
  6  7  1  0
  4  8  1  0
  8  9  1  0
  9 10  2  0
 10 11  1  0
 11 12  2  0
 12 13  1  0
 13 14  2  0
 14 15  1  0
 15 16  2  0
 16 17  1  0
 17 18  1  0
 17 19  2  0
 19 20  1  0
 20 21  1  0
 20 22  2  0
 12  8  1  0
 22 15  1  0
 22 11  1  0
  1 23  1  0
  1 24  1  0
  1 25  1  0
  3 26  1  0
  3 27  1  0
  4 28  1  0
  5 29  1  0
  5 30  1  0
  7 31  1  0
  7 32  1  0
  7 33  1  0
  9 34  1  0
 10 35  1  0
 13 36  1  0
 14 37  1  0
 18 38  1  0
 18 39  1  0
 21 40  1  0
 21 41  1  0
M  END
$$$$
