
     RDKit          3D

 51 54  0  0  0  0  0  0  0  0999 V2000
   -3.7564    0.4902   -1.6879 O   0  0  0  0  0  0  0  0  0  0  0  0
   -4.2748    0.0716   -0.4579 C   0  0  0  0  0  0  0  0  0  0  0  0
   -3.5196   -0.1542    0.5848 N   0  0  0  0  0  0  0  0  0  0  0  0
   -2.0659   -0.0485    0.7586 C   0  0  0  0  0  0  0  0  0  0  0  0
   -1.2925   -1.0580   -0.1143 C   0  0  0  0  0  0  0  0  0  0  0  0
    0.2172   -0.8781    0.0761 C   0  0  0  0  0  0  0  0  0  0  0  0
    0.5916    0.5220   -0.2043 N   0  0  0  0  0  0  0  0  0  0  0  0
    2.0521    0.7179   -0.3378 C   0  0  0  0  0  0  0  0  0  0  0  0
    2.8494    0.4535    0.9545 C   0  0  0  0  0  0  0  0  0  0  0  0
    4.3164    0.6350    0.7036 C   0  0  0  0  0  0  0  0  0  0  0  0
    5.0551    1.7979    0.9007 C   0  0  0  0  0  0  0  0  0  0  0  0
    6.3338    1.6184    0.4975 N   0  0  0  0  0  0  0  0  0  0  0  0
    6.4046    0.3576    0.0356 C   0  0  0  0  0  0  0  0  0  0  0  0
    7.5176   -0.2824   -0.5080 C   0  0  0  0  0  0  0  0  0  0  0  0
    7.3614   -1.6080   -0.9533 C   0  0  0  0  0  0  0  0  0  0  0  0
    6.1098   -2.2551   -0.8503 C   0  0  0  0  0  0  0  0  0  0  0  0
    5.0032   -1.5836   -0.2993 C   0  0  0  0  0  0  0  0  0  0  0  0
    5.1909   -0.2725    0.1391 C   0  0  0  0  0  0  0  0  0  0  0  0
   -0.0335    1.4473    0.7608 C   0  0  0  0  0  0  0  0  0  0  0  0
   -1.5578    1.4003    0.6105 C   0  0  0  0  0  0  0  0  0  0  0  0
   -5.7420   -0.1210   -0.3417 C   0  0  0  0  0  0  0  0  0  0  0  0
   -6.5776    0.1156   -1.4503 C   0  0  0  0  0  0  0  0  0  0  0  0
   -7.9606   -0.0639   -1.3480 C   0  0  0  0  0  0  0  0  0  0  0  0
   -8.5266   -0.4806   -0.1417 C   0  0  0  0  0  0  0  0  0  0  0  0
   -7.7109   -0.7190    0.9659 C   0  0  0  0  0  0  0  0  0  0  0  0
   -6.3272   -0.5415    0.8704 C   0  0  0  0  0  0  0  0  0  0  0  0
   -2.7812    0.6520   -1.8796 H   0  0  0  0  0  0  0  0  0  0  0  0
   -1.8633   -0.3379    1.8141 H   0  0  0  0  0  0  0  0  0  0  0  0
   -1.5760   -2.0914    0.1816 H   0  0  0  0  0  0  0  0  0  0  0  0
   -1.5274   -0.9477   -1.1891 H   0  0  0  0  0  0  0  0  0  0  0  0
    0.7435   -1.5654   -0.6224 H   0  0  0  0  0  0  0  0  0  0  0  0
    0.4877   -1.1644    1.1166 H   0  0  0  0  0  0  0  0  0  0  0  0
    2.4325    0.0547   -1.1460 H   0  0  0  0  0  0  0  0  0  0  0  0
    2.2472    1.7594   -0.6770 H   0  0  0  0  0  0  0  0  0  0  0  0
    2.6808   -0.5805    1.3181 H   0  0  0  0  0  0  0  0  0  0  0  0
    2.5385    1.1585    1.7532 H   0  0  0  0  0  0  0  0  0  0  0  0
    4.6742    2.7265    1.3057 H   0  0  0  0  0  0  0  0  0  0  0  0
    7.1031    2.3240    0.5262 H   0  0  0  0  0  0  0  0  0  0  0  0
    8.4708    0.2238   -0.5887 H   0  0  0  0  0  0  0  0  0  0  0  0
    8.2051   -2.1340   -1.3806 H   0  0  0  0  0  0  0  0  0  0  0  0
    6.0006   -3.2736   -1.1995 H   0  0  0  0  0  0  0  0  0  0  0  0
    4.0401   -2.0713   -0.2219 H   0  0  0  0  0  0  0  0  0  0  0  0
    0.3061    2.4893    0.5705 H   0  0  0  0  0  0  0  0  0  0  0  0
    0.2369    1.1774    1.8060 H   0  0  0  0  0  0  0  0  0  0  0  0
   -1.8289    1.8407   -0.3668 H   0  0  0  0  0  0  0  0  0  0  0  0
   -2.0208    2.0336    1.3981 H   0  0  0  0  0  0  0  0  0  0  0  0
   -6.1658    0.4393   -2.3977 H   0  0  0  0  0  0  0  0  0  0  0  0
   -8.5942    0.1206   -2.2060 H   0  0  0  0  0  0  0  0  0  0  0  0
   -9.5974   -0.6187   -0.0652 H   0  0  0  0  0  0  0  0  0  0  0  0
   -8.1509   -1.0420    1.9006 H   0  0  0  0  0  0  0  0  0  0  0  0
   -5.7191   -0.7337    1.7452 H   0  0  0  0  0  0  0  0  0  0  0  0
  1  2  1  0
  2  3  2  3
  3  4  1  0
  4  5  1  0
  5  6  1  0
  6  7  1  0
  7  8  1  0
  8  9  1  0
  9 10  1  0
 10 11  2  0
 11 12  1  0
 12 13  1  0
 13 14  2  0
 14 15  1  0
 15 16  2  0
 16 17  1  0
 17 18  2  0
  7 19  1  0
 19 20  1  0
  2 21  1  0
 21 22  2  0
 22 23  1  0
 23 24  2  0
 24 25  1  0
 25 26  2  0
 20  4  1  0
 26 21  1  0
 18 10  1  0
 18 13  1  0
  1 27  1  0
  4 28  1  0
  5 29  1  0
  5 30  1  0
  6 31  1  0
  6 32  1  0
  8 33  1  0
  8 34  1  0
  9 35  1  0
  9 36  1  0
 11 37  1  0
 12 38  1  0
 14 39  1  0
 15 40  1  0
 16 41  1  0
 17 42  1  0
 19 43  1  0
 19 44  1  0
 20 45  1  0
 20 46  1  0
 22 47  1  0
 23 48  1  0
 24 49  1  0
 25 50  1  0
 26 51  1  0
M  END
$$$$
