
     RDKit          3D

 34 34  0  0  0  0  0  0  0  0999 V2000
    3.5260    2.2403    2.5778 C   0  0  0  0  0  0  0  0  0  0  0  0
    2.7612    1.0860    3.0493 C   0  0  0  0  0  0  0  0  0  0  0  0
    2.1284    0.1351    3.4342 C   0  0  0  0  0  0  0  0  0  0  0  0
    1.3514   -1.0213    3.8939 C   0  0  0  0  0  0  0  0  0  0  0  0
    1.0572   -1.8888    2.7999 O   0  0  0  0  0  0  0  0  0  0  0  0
    0.1726   -1.5967    1.7482 C   0  0  0  0  0  0  0  0  0  0  0  0
   -0.5866   -0.4108    1.7006 C   0  0  0  0  0  0  0  0  0  0  0  0
   -1.4431   -0.1650    0.6237 C   0  0  0  0  0  0  0  0  0  0  0  0
   -1.5569   -1.0981   -0.4153 C   0  0  0  0  0  0  0  0  0  0  0  0
   -0.8065   -2.2790   -0.3682 C   0  0  0  0  0  0  0  0  0  0  0  0
    0.0492   -2.5264    0.7087 C   0  0  0  0  0  0  0  0  0  0  0  0
   -2.5949   -0.7762   -1.8021 S   0  0  0  0  0  6  0  0  0  0  0  0
   -3.5365    0.3543   -1.4932 O   0  0  0  0  0  0  0  0  0  0  0  0
   -3.4108   -2.0038   -2.0951 O   0  0  0  0  0  0  0  0  0  0  0  0
   -1.6159   -0.3649   -3.2457 C   0  0  0  0  0  0  0  0  0  0  0  0
   -0.4561    0.5928   -2.9371 C   0  0  0  0  0  0  0  0  0  0  0  0
   -0.9321    2.0017   -2.5733 C   0  0  0  0  0  0  0  0  0  0  0  0
    0.4934    3.1041   -2.3215 S   0  0  0  0  0  0  0  0  0  0  0  0
    3.1022    2.5964    1.6162 H   0  0  0  0  0  0  0  0  0  0  0  0
    3.4702    3.0536    3.3303 H   0  0  0  0  0  0  0  0  0  0  0  0
    4.5853    1.9463    2.4286 H   0  0  0  0  0  0  0  0  0  0  0  0
    1.9576   -1.5785    4.6372 H   0  0  0  0  0  0  0  0  0  0  0  0
    0.4167   -0.6871    4.3911 H   0  0  0  0  0  0  0  0  0  0  0  0
   -0.5204    0.3295    2.4853 H   0  0  0  0  0  0  0  0  0  0  0  0
   -2.0095    0.7568    0.5998 H   0  0  0  0  0  0  0  0  0  0  0  0
   -0.8776   -3.0036   -1.1696 H   0  0  0  0  0  0  0  0  0  0  0  0
    0.6270   -3.4417    0.7319 H   0  0  0  0  0  0  0  0  0  0  0  0
   -1.1931   -1.3085   -3.6514 H   0  0  0  0  0  0  0  0  0  0  0  0
   -2.2766    0.0716   -4.0248 H   0  0  0  0  0  0  0  0  0  0  0  0
    0.1720    0.1821   -2.1179 H   0  0  0  0  0  0  0  0  0  0  0  0
    0.1832    0.6571   -3.8442 H   0  0  0  0  0  0  0  0  0  0  0  0
   -1.5709    2.4148   -3.3829 H   0  0  0  0  0  0  0  0  0  0  0  0
   -1.5144    1.9808   -1.6305 H   0  0  0  0  0  0  0  0  0  0  0  0
    0.8484    3.0885   -3.6841 H   0  0  0  0  0  0  0  0  0  0  0  0
  1  2  1  0
  2  3  3  0
  3  4  1  0
  4  5  1  0
  5  6  1  0
  6  7  2  0
  7  8  1  0
  8  9  2  0
  9 10  1  0
 10 11  2  0
  9 12  1  0
 12 13  2  0
 12 14  2  0
 12 15  1  0
 15 16  1  0
 16 17  1  0
 17 18  1  0
 11  6  1  0
  1 19  1  0
  1 20  1  0
  1 21  1  0
  4 22  1  0
  4 23  1  0
  7 24  1  0
  8 25  1  0
 10 26  1  0
 11 27  1  0
 15 28  1  0
 15 29  1  0
 16 30  1  0
 16 31  1  0
 17 32  1  0
 17 33  1  0
 18 34  1  0
M  END
$$$$
