
     RDKit          3D

 34 33  0  0  0  0  0  0  0  0999 V2000
   -2.0007   -2.0143    1.3380 O   0  0  0  0  0  0  0  0  0  0  0  0
   -1.6981   -1.0362    0.3750 C   0  0  2  0  0  0  0  0  0  0  0  0
   -2.8085   -1.0191   -0.6933 C   0  0  0  0  0  0  0  0  0  0  0  0
   -2.5718   -0.0061   -1.6513 O   0  0  0  0  0  0  0  0  0  0  0  0
   -3.5267    1.3666   -1.3023 P   0  0  0  0  0  5  0  0  0  0  0  0
   -5.1689    0.9685   -1.4043 O   0  0  0  0  0  0  0  0  0  0  0  0
   -3.1783    2.5750   -2.4340 O   0  0  0  0  0  0  0  0  0  0  0  0
   -3.2192    1.8851    0.0847 O   0  0  0  0  0  0  0  0  0  0  0  0
   -0.3070   -1.3251   -0.2570 C   0  0  2  0  0  0  0  0  0  0  0  0
   -0.2393   -2.6525   -0.7204 O   0  0  0  0  0  0  0  0  0  0  0  0
    0.8961   -1.0111    0.6805 C   0  0  2  0  0  0  0  0  0  0  0  0
    0.7506   -1.6327    1.9342 O   0  0  0  0  0  0  0  0  0  0  0  0
    1.1922    0.4726    0.8388 C   0  0  0  0  0  0  0  0  0  0  0  0
    0.4171    1.3181    0.4159 O   0  0  0  0  0  0  0  0  0  0  0  0
    2.4468    0.9177    1.5415 C   0  0  0  0  0  0  0  0  0  0  0  0
    3.1806    1.8226    0.7441 O   0  0  0  0  0  0  0  0  0  0  0  0
    4.1699    0.9589   -0.3499 P   0  0  0  0  0  5  0  0  0  0  0  0
    5.1633    2.0573   -1.1672 O   0  0  0  0  0  0  0  0  0  0  0  0
    5.1438   -0.1520    0.4781 O   0  0  0  0  0  0  0  0  0  0  0  0
    3.3137    0.2300   -1.3612 O   0  0  0  0  0  0  0  0  0  0  0  0
   -2.7069   -1.6353    1.9244 H   0  0  0  0  0  0  0  0  0  0  0  0
   -1.6697   -0.0381    0.8645 H   0  0  0  0  0  0  0  0  0  0  0  0
   -3.8081   -0.9537   -0.2032 H   0  0  0  0  0  0  0  0  0  0  0  0
   -2.8071   -1.9953   -1.2233 H   0  0  0  0  0  0  0  0  0  0  0  0
   -5.2838    0.6112   -2.3207 H   0  0  0  0  0  0  0  0  0  0  0  0
   -3.8176    3.3037   -2.2307 H   0  0  0  0  0  0  0  0  0  0  0  0
   -0.1865   -0.6754   -1.1513 H   0  0  0  0  0  0  0  0  0  0  0  0
   -0.2076   -3.2508    0.0708 H   0  0  0  0  0  0  0  0  0  0  0  0
    1.7952   -1.4543    0.2002 H   0  0  0  0  0  0  0  0  0  0  0  0
    0.1351   -1.0778    2.4811 H   0  0  0  0  0  0  0  0  0  0  0  0
    3.0531    0.0502    1.8870 H   0  0  0  0  0  0  0  0  0  0  0  0
    2.1398    1.4531    2.4641 H   0  0  0  0  0  0  0  0  0  0  0  0
    5.6923    2.4958   -0.4540 H   0  0  0  0  0  0  0  0  0  0  0  0
    5.7164   -0.5567   -0.2214 H   0  0  0  0  0  0  0  0  0  0  0  0
  1  2  1  0
  2  3  1  0
  3  4  1  0
  4  5  1  0
  5  6  1  0
  5  7  1  0
  5  8  2  0
  2  9  1  0
  9 10  1  0
  9 11  1  0
 11 12  1  0
 11 13  1  0
 13 14  2  0
 13 15  1  0
 15 16  1  0
 16 17  1  0
 17 18  1  0
 17 19  1  0
 17 20  2  0
  1 21  1  0
  2 22  1  1
  3 23  1  0
  3 24  1  0
  6 25  1  0
  7 26  1  0
  9 27  1  6
 10 28  1  0
 11 29  1  6
 12 30  1  0
 15 31  1  0
 15 32  1  0
 18 33  1  0
 19 34  1  0
M  END
$$$$
