
     RDKit          3D

 52 51  0  0  0  0  0  0  0  0999 V2000
   -0.9219   -1.2046   -1.8738 C   0  0  1  0  0  0  0  0  0  0  0  0
   -0.8094   -2.0124   -3.0203 O   0  0  0  0  0  0  0  0  0  0  0  0
   -1.9417   -1.7787   -0.8692 C   0  0  0  0  0  0  0  0  0  0  0  0
   -3.3233   -1.8379   -1.4724 C   0  0  0  0  0  0  0  0  0  0  0  0
   -4.2095   -0.8247   -1.4521 C   0  0  0  0  0  0  0  0  0  0  0  0
   -3.9878    0.4903   -0.7487 C   0  0  0  0  0  0  0  0  0  0  0  0
   -4.4000    0.3947    0.7274 C   0  0  0  0  0  0  0  0  0  0  0  0
   -3.9723    1.6248    1.5474 C   0  0  0  0  0  0  0  0  0  0  0  0
   -4.5985    2.9538    1.0891 C   0  0  0  0  0  0  0  0  0  0  0  0
   -6.1207    2.9736    1.2227 C   0  0  0  0  0  0  0  0  0  0  0  0
    0.4305   -0.9882   -1.2352 C   0  0  0  0  0  0  0  0  0  0  0  0
    1.1666   -1.9954   -0.7366 C   0  0  0  0  0  0  0  0  0  0  0  0
    2.5038   -1.7430   -0.1008 C   0  0  0  0  0  0  0  0  0  0  0  0
    3.5168   -1.3371   -1.1372 C   0  0  0  0  0  0  0  0  0  0  0  0
    3.8648   -2.1471   -1.9841 O   0  0  0  0  0  0  0  0  0  0  0  0
    4.0925    0.0563   -1.1621 C   0  0  0  0  0  0  0  0  0  0  0  0
    5.6197    0.0596   -0.9931 C   0  0  0  0  0  0  0  0  0  0  0  0
    6.1132   -0.4961    0.3579 C   0  0  0  0  0  0  0  0  0  0  0  0
    5.9326    0.4780    1.5366 C   0  0  0  0  0  0  0  0  0  0  0  0
    4.5765    0.3758    2.1635 C   0  0  0  0  0  0  0  0  0  0  0  0
    3.7016    1.4563    2.1085 O   0  0  0  0  0  0  0  0  0  0  0  0
    4.2333   -0.6817    2.7570 O   0  0  0  0  0  0  0  0  0  0  0  0
   -1.2847   -0.2086   -2.2059 H   0  0  0  0  0  0  0  0  0  0  0  0
   -0.5852   -2.9336   -2.7268 H   0  0  0  0  0  0  0  0  0  0  0  0
   -1.9423   -1.1767    0.0636 H   0  0  0  0  0  0  0  0  0  0  0  0
   -1.6454   -2.8102   -0.5816 H   0  0  0  0  0  0  0  0  0  0  0  0
   -3.6029   -2.7503   -1.9912 H   0  0  0  0  0  0  0  0  0  0  0  0
   -5.1630   -0.9704   -1.9518 H   0  0  0  0  0  0  0  0  0  0  0  0
   -4.6182    1.2532   -1.2524 H   0  0  0  0  0  0  0  0  0  0  0  0
   -2.9320    0.8190   -0.8441 H   0  0  0  0  0  0  0  0  0  0  0  0
   -5.4977    0.2430    0.8032 H   0  0  0  0  0  0  0  0  0  0  0  0
   -3.9222   -0.4970    1.1878 H   0  0  0  0  0  0  0  0  0  0  0  0
   -2.8654    1.7200    1.5011 H   0  0  0  0  0  0  0  0  0  0  0  0
   -4.2371    1.4505    2.6131 H   0  0  0  0  0  0  0  0  0  0  0  0
   -4.3107    3.1816    0.0413 H   0  0  0  0  0  0  0  0  0  0  0  0
   -4.1842    3.7669    1.7238 H   0  0  0  0  0  0  0  0  0  0  0  0
   -6.4256    2.6762    2.2485 H   0  0  0  0  0  0  0  0  0  0  0  0
   -6.4948    4.0004    1.0261 H   0  0  0  0  0  0  0  0  0  0  0  0
   -6.5876    2.2906    0.4830 H   0  0  0  0  0  0  0  0  0  0  0  0
    0.8143    0.0277   -1.1824 H   0  0  0  0  0  0  0  0  0  0  0  0
    0.7962   -3.0155   -0.7717 H   0  0  0  0  0  0  0  0  0  0  0  0
    2.3930   -0.9632    0.6819 H   0  0  0  0  0  0  0  0  0  0  0  0
    2.8556   -2.6703    0.3995 H   0  0  0  0  0  0  0  0  0  0  0  0
    3.6216    0.6983   -0.3921 H   0  0  0  0  0  0  0  0  0  0  0  0
    3.8461    0.5126   -2.1449 H   0  0  0  0  0  0  0  0  0  0  0  0
    6.0672   -0.5490   -1.8094 H   0  0  0  0  0  0  0  0  0  0  0  0
    5.9966    1.0964   -1.1302 H   0  0  0  0  0  0  0  0  0  0  0  0
    7.2035   -0.6869    0.2516 H   0  0  0  0  0  0  0  0  0  0  0  0
    5.6467   -1.4808    0.5780 H   0  0  0  0  0  0  0  0  0  0  0  0
    6.1253    1.5238    1.2140 H   0  0  0  0  0  0  0  0  0  0  0  0
    6.6852    0.2355    2.3179 H   0  0  0  0  0  0  0  0  0  0  0  0
    2.7808    1.4004    2.5270 H   0  0  0  0  0  0  0  0  0  0  0  0
  1  2  1  0
  1  3  1  0
  3  4  1  0
  4  5  2  0
  5  6  1  0
  6  7  1  0
  7  8  1  0
  8  9  1  0
  9 10  1  0
  1 11  1  0
 11 12  2  0
 12 13  1  0
 13 14  1  0
 14 15  2  0
 14 16  1  0
 16 17  1  0
 17 18  1  0
 18 19  1  0
 19 20  1  0
 20 21  1  0
 20 22  2  0
  1 23  1  6
  2 24  1  0
  3 25  1  0
  3 26  1  0
  4 27  1  0
  5 28  1  0
  6 29  1  0
  6 30  1  0
  7 31  1  0
  7 32  1  0
  8 33  1  0
  8 34  1  0
  9 35  1  0
  9 36  1  0
 10 37  1  0
 10 38  1  0
 10 39  1  0
 11 40  1  0
 12 41  1  0
 13 42  1  0
 13 43  1  0
 16 44  1  0
 16 45  1  0
 17 46  1  0
 17 47  1  0
 18 48  1  0
 18 49  1  0
 19 50  1  0
 19 51  1  0
 21 52  1  0
M  END
$$$$
