
     RDKit          3D

 57 60  0  0  0  0  0  0  0  0999 V2000
    0.8898    1.0246   -0.0001 C   0  0  2  0  0  0  0  0  0  0  0  0
    1.5892    2.2210   -0.6344 C   0  0  0  0  0  0  0  0  0  0  0  0
    3.0789    2.0263   -0.2970 C   0  0  0  0  0  0  0  0  0  0  0  0
    3.2158    0.6340    0.3911 C   0  0  2  0  0  0  0  0  0  0  0  0
    3.1886    0.8796    1.7840 O   0  0  0  0  0  0  0  0  0  0  0  0
    4.5290   -0.0697    0.0007 C   0  0  0  0  0  0  0  0  0  0  0  0
    4.9903    0.0813   -1.1227 O   0  0  0  0  0  0  0  0  0  0  0  0
    5.2622   -0.9718    0.9669 C   0  0  0  0  0  0  0  0  0  0  0  0
    6.3549   -1.5996    0.3497 O   0  0  0  0  0  0  0  0  0  0  0  0
    1.9167   -0.1138   -0.0812 C   0  0  2  0  0  0  0  0  0  0  0  0
    2.1210   -0.6473   -1.5410 C   0  0  0  0  0  0  0  0  0  0  0  0
    1.4126   -1.2642    0.8340 C   0  0  0  0  0  0  0  0  0  0  0  0
   -0.0198   -1.7466    0.4683 C   0  0  2  0  0  0  0  0  0  0  0  0
    0.0049   -2.5163   -0.7037 O   0  0  0  0  0  0  0  0  0  0  0  0
   -1.0487   -0.5642    0.3570 C   0  0  1  0  0  0  0  0  0  0  0  0
   -0.5153    0.6292   -0.5139 C   0  0  1  0  0  0  0  0  0  0  0  0
   -1.4727    1.8384   -0.4265 C   0  0  0  0  0  0  0  0  0  0  0  0
   -2.8971    1.4622   -0.8569 C   0  0  2  0  0  0  0  0  0  0  0  0
   -3.7905    2.7151   -0.8692 C   0  0  0  0  0  0  0  0  0  0  0  0
   -3.3834    0.3064    0.0167 C   0  0  0  0  0  0  0  0  0  0  0  0
   -4.4568    0.4263    0.8265 C   0  0  0  0  0  0  0  0  0  0  0  0
   -4.8614   -0.6570    1.7205 C   0  0  0  0  0  0  0  0  0  0  0  0
   -5.8751   -0.5257    2.4560 O   0  0  0  0  0  0  0  0  0  0  0  0
   -4.0830   -1.8875    1.7624 C   0  0  0  0  0  0  0  0  0  0  0  0
   -3.0145   -2.0374    0.9835 C   0  0  0  0  0  0  0  0  0  0  0  0
   -2.5287   -0.9792   -0.0091 C   0  0  2  0  0  0  0  0  0  0  0  0
   -2.6593   -1.6127   -1.4175 C   0  0  0  0  0  0  0  0  0  0  0  0
    0.7565    1.2974    1.0757 H   0  0  0  0  0  0  0  0  0  0  0  0
    1.2081    3.1767   -0.2126 H   0  0  0  0  0  0  0  0  0  0  0  0
    1.4352    2.2227   -1.7359 H   0  0  0  0  0  0  0  0  0  0  0  0
    3.6656    2.1036   -1.2372 H   0  0  0  0  0  0  0  0  0  0  0  0
    3.4320    2.8391    0.3759 H   0  0  0  0  0  0  0  0  0  0  0  0
    3.2867    0.0242    2.2721 H   0  0  0  0  0  0  0  0  0  0  0  0
    4.5672   -1.7600    1.3232 H   0  0  0  0  0  0  0  0  0  0  0  0
    5.6061   -0.3843    1.8480 H   0  0  0  0  0  0  0  0  0  0  0  0
    7.0863   -0.9288    0.3149 H   0  0  0  0  0  0  0  0  0  0  0  0
    1.1906   -0.9646   -2.0397 H   0  0  0  0  0  0  0  0  0  0  0  0
    2.5717    0.1193   -2.2037 H   0  0  0  0  0  0  0  0  0  0  0  0
    2.7960   -1.5294   -1.5339 H   0  0  0  0  0  0  0  0  0  0  0  0
    1.3648   -0.9264    1.8903 H   0  0  0  0  0  0  0  0  0  0  0  0
    2.1221   -2.1189    0.7984 H   0  0  0  0  0  0  0  0  0  0  0  0
   -0.3434   -2.3981    1.3119 H   0  0  0  0  0  0  0  0  0  0  0  0
    0.4257   -3.3856   -0.4730 H   0  0  0  0  0  0  0  0  0  0  0  0
   -1.1166   -0.1640    1.3968 H   0  0  0  0  0  0  0  0  0  0  0  0
   -0.4554    0.3413   -1.5801 H   0  0  0  0  0  0  0  0  0  0  0  0
   -1.0999    2.6467   -1.0931 H   0  0  0  0  0  0  0  0  0  0  0  0
   -1.4913    2.2339    0.6142 H   0  0  0  0  0  0  0  0  0  0  0  0
   -2.8600    1.1091   -1.9095 H   0  0  0  0  0  0  0  0  0  0  0  0
   -3.3850    3.4625   -1.5844 H   0  0  0  0  0  0  0  0  0  0  0  0
   -3.8316    3.1854    0.1367 H   0  0  0  0  0  0  0  0  0  0  0  0
   -4.8166    2.4537   -1.2052 H   0  0  0  0  0  0  0  0  0  0  0  0
   -5.0472    1.3300    0.8619 H   0  0  0  0  0  0  0  0  0  0  0  0
   -4.3836   -2.6908    2.4239 H   0  0  0  0  0  0  0  0  0  0  0  0
   -2.5027   -2.9908    1.0237 H   0  0  0  0  0  0  0  0  0  0  0  0
   -2.1000   -1.0514   -2.1904 H   0  0  0  0  0  0  0  0  0  0  0  0
   -3.7278   -1.6411   -1.7240 H   0  0  0  0  0  0  0  0  0  0  0  0
   -2.3014   -2.6629   -1.4363 H   0  0  0  0  0  0  0  0  0  0  0  0
  1  2  1  0
  2  3  1  0
  3  4  1  0
  4  5  1  1
  4  6  1  0
  6  7  2  0
  6  8  1  0
  8  9  1  0
  4 10  1  0
 10 11  1  6
 10 12  1  0
 12 13  1  0
 13 14  1  0
 13 15  1  0
 15 16  1  0
 16 17  1  0
 17 18  1  0
 18 19  1  0
 18 20  1  0
 20 21  2  0
 21 22  1  0
 22 23  2  0
 22 24  1  0
 24 25  2  0
 25 26  1  0
 26 27  1  6
 10  1  1  0
 26 15  1  0
 16  1  1  0
 26 20  1  0
  1 28  1  1
  2 29  1  0
  2 30  1  0
  3 31  1  0
  3 32  1  0
  5 33  1  0
  8 34  1  0
  8 35  1  0
  9 36  1  0
 11 37  1  0
 11 38  1  0
 11 39  1  0
 12 40  1  0
 12 41  1  0
 13 42  1  1
 14 43  1  0
 15 44  1  1
 16 45  1  6
 17 46  1  0
 17 47  1  0
 18 48  1  6
 19 49  1  0
 19 50  1  0
 19 51  1  0
 21 52  1  0
 24 53  1  0
 25 54  1  0
 27 55  1  0
 27 56  1  0
 27 57  1  0
M  END
$$$$
