
     RDKit          3D

 68 72  0  0  0  0  0  0  0  0999 V2000
   -0.9695   -3.3272    1.1835 C   0  0  1  0  0  0  0  0  0  0  0  0
   -2.2661   -3.2915    1.7162 O   0  0  0  0  0  0  0  0  0  0  0  0
   -0.9685   -4.0251   -0.1940 C   0  0  0  0  0  0  0  0  0  0  0  0
    0.0363   -3.2617   -1.0726 C   0  0  0  0  0  0  0  0  0  0  0  0
    0.7318   -2.3270   -0.0942 C   0  0  1  0  0  0  0  0  0  0  0  0
    1.5519   -1.1355   -0.6426 C   0  0  2  0  0  0  0  0  0  0  0  0
    2.6355   -1.6219   -1.6221 C   0  0  0  0  0  0  0  0  0  0  0  0
    3.4907   -0.4553   -2.1183 C   0  0  0  0  0  0  0  0  0  0  0  0
    4.1508    0.2951   -0.9442 C   0  0  1  0  0  0  0  0  0  0  0  0
    5.0587    1.4222   -1.4781 C   0  0  0  0  0  0  0  0  0  0  0  0
    5.5356    2.3146   -0.3678 C   0  0  0  0  0  0  0  0  0  0  0  0
    6.1548    3.3321   -0.6379 O   0  0  0  0  0  0  0  0  0  0  0  0
    5.3182    1.9326    1.0693 C   0  0  0  0  0  0  0  0  0  0  0  0
    3.9027    1.3777    1.3547 C   0  0  0  0  0  0  0  0  0  0  0  0
    3.1150    0.8165    0.1156 C   0  0  1  0  0  0  0  0  0  0  0  0
    2.2422    1.9666   -0.4738 C   0  0  0  0  0  0  0  0  0  0  0  0
    2.2182   -0.4008    0.5678 C   0  0  1  0  0  0  0  0  0  0  0  0
    1.1790   -0.0546    1.6808 C   0  0  0  0  0  0  0  0  0  0  0  0
    0.3583   -1.2883    2.1253 C   0  0  0  0  0  0  0  0  0  0  0  0
   -0.3663   -1.9248    0.9137 C   0  0  2  0  0  0  0  0  0  0  0  0
   -1.4553   -0.9563    0.2903 C   0  0  0  0  0  0  0  0  0  0  0  0
   -2.3843   -0.2468    1.2922 C   0  0  0  0  0  0  0  0  0  0  0  0
   -3.4119    0.4048    0.5745 O   0  0  0  0  0  0  0  0  0  0  0  0
   -4.2685    1.0777    1.4723 C   0  0  0  0  0  0  0  0  0  0  0  0
   -5.3452    1.7683    0.6866 C   0  0  0  0  0  0  0  0  0  0  0  0
   -5.1422    3.0705    0.2002 C   0  0  0  0  0  0  0  0  0  0  0  0
   -6.1302    3.6986   -0.5653 C   0  0  0  0  0  0  0  0  0  0  0  0
   -5.9317    4.9582   -1.0259 F   0  0  0  0  0  0  0  0  0  0  0  0
   -7.3201    3.0266   -0.8603 C   0  0  0  0  0  0  0  0  0  0  0  0
   -7.5218    1.7238   -0.3950 C   0  0  0  0  0  0  0  0  0  0  0  0
   -8.6719    1.0696   -0.6906 F   0  0  0  0  0  0  0  0  0  0  0  0
   -6.5358    1.0928    0.3707 C   0  0  0  0  0  0  0  0  0  0  0  0
   -0.2988   -3.9081    1.8633 H   0  0  0  0  0  0  0  0  0  0  0  0
   -2.1643   -3.1597    2.6950 H   0  0  0  0  0  0  0  0  0  0  0  0
   -0.6635   -5.0888   -0.0843 H   0  0  0  0  0  0  0  0  0  0  0  0
   -1.9773   -3.9922   -0.6613 H   0  0  0  0  0  0  0  0  0  0  0  0
    0.7591   -3.9588   -1.5498 H   0  0  0  0  0  0  0  0  0  0  0  0
   -0.4908   -2.6804   -1.8605 H   0  0  0  0  0  0  0  0  0  0  0  0
    1.4739   -2.9742    0.4390 H   0  0  0  0  0  0  0  0  0  0  0  0
    0.8930   -0.4520   -1.2080 H   0  0  0  0  0  0  0  0  0  0  0  0
    3.2896   -2.3771   -1.1321 H   0  0  0  0  0  0  0  0  0  0  0  0
    2.1582   -2.1035   -2.5026 H   0  0  0  0  0  0  0  0  0  0  0  0
    2.8677    0.2326   -2.7289 H   0  0  0  0  0  0  0  0  0  0  0  0
    4.2824   -0.8609   -2.7858 H   0  0  0  0  0  0  0  0  0  0  0  0
    4.8167   -0.4387   -0.4324 H   0  0  0  0  0  0  0  0  0  0  0  0
    4.5097    2.0376   -2.2236 H   0  0  0  0  0  0  0  0  0  0  0  0
    5.9410    0.9810   -1.9902 H   0  0  0  0  0  0  0  0  0  0  0  0
    6.0720    1.1563    1.3247 H   0  0  0  0  0  0  0  0  0  0  0  0
    5.5117    2.8063    1.7298 H   0  0  0  0  0  0  0  0  0  0  0  0
    4.0322    0.5807    2.1195 H   0  0  0  0  0  0  0  0  0  0  0  0
    3.3057    2.1701    1.8584 H   0  0  0  0  0  0  0  0  0  0  0  0
    1.6737    1.6502   -1.3689 H   0  0  0  0  0  0  0  0  0  0  0  0
    2.8628    2.8389   -0.7614 H   0  0  0  0  0  0  0  0  0  0  0  0
    1.5193    2.3525    0.2714 H   0  0  0  0  0  0  0  0  0  0  0  0
    2.9109   -1.1399    1.0348 H   0  0  0  0  0  0  0  0  0  0  0  0
    1.6982    0.3447    2.5766 H   0  0  0  0  0  0  0  0  0  0  0  0
    0.4842    0.7318    1.3326 H   0  0  0  0  0  0  0  0  0  0  0  0
   -0.3650   -1.0026    2.9169 H   0  0  0  0  0  0  0  0  0  0  0  0
    1.0499   -2.0249    2.5914 H   0  0  0  0  0  0  0  0  0  0  0  0
   -2.0929   -1.5165   -0.4267 H   0  0  0  0  0  0  0  0  0  0  0  0
   -0.9878   -0.1488   -0.3006 H   0  0  0  0  0  0  0  0  0  0  0  0
   -1.7940    0.5017    1.8655 H   0  0  0  0  0  0  0  0  0  0  0  0
   -2.8204   -0.9756    2.0039 H   0  0  0  0  0  0  0  0  0  0  0  0
   -3.7065    1.8362    2.0647 H   0  0  0  0  0  0  0  0  0  0  0  0
   -4.7387    0.3606    2.1842 H   0  0  0  0  0  0  0  0  0  0  0  0
   -4.2199    3.5970    0.4134 H   0  0  0  0  0  0  0  0  0  0  0  0
   -8.0833    3.5132   -1.4540 H   0  0  0  0  0  0  0  0  0  0  0  0
   -6.6987    0.0795    0.7167 H   0  0  0  0  0  0  0  0  0  0  0  0
  1  2  1  0
  1  3  1  0
  3  4  1  0
  4  5  1  0
  5  6  1  0
  6  7  1  0
  7  8  1  0
  8  9  1  0
  9 10  1  0
 10 11  1  0
 11 12  2  0
 11 13  1  0
 13 14  1  0
 14 15  1  0
 15 16  1  6
 15 17  1  0
 17 18  1  0
 18 19  1  0
 19 20  1  0
 20 21  1  6
 21 22  1  0
 22 23  1  0
 23 24  1  0
 24 25  1  0
 25 26  2  0
 26 27  1  0
 27 28  1  0
 27 29  2  0
 29 30  1  0
 30 31  1  0
 30 32  2  0
 20  1  1  0
 32 25  1  0
 20  5  1  0
 17  6  1  0
 15  9  1  0
  1 33  1  1
  2 34  1  0
  3 35  1  0
  3 36  1  0
  4 37  1  0
  4 38  1  0
  5 39  1  1
  6 40  1  6
  7 41  1  0
  7 42  1  0
  8 43  1  0
  8 44  1  0
  9 45  1  1
 10 46  1  0
 10 47  1  0
 13 48  1  0
 13 49  1  0
 14 50  1  0
 14 51  1  0
 16 52  1  0
 16 53  1  0
 16 54  1  0
 17 55  1  1
 18 56  1  0
 18 57  1  0
 19 58  1  0
 19 59  1  0
 21 60  1  0
 21 61  1  0
 22 62  1  0
 22 63  1  0
 24 64  1  0
 24 65  1  0
 26 66  1  0
 29 67  1  0
 32 68  1  0
M  END
$$$$
