
     RDKit          3D

 26 25  0  0  0  0  0  0  0  0999 V2000
    2.2646   -0.0871   -0.2119 C   0  0  2  0  0  0  0  0  0  0  0  0
    2.4929    0.0526   -1.5916 O   0  0  0  0  0  0  0  0  0  0  0  0
    3.2815   -1.0701    0.3996 C   0  0  0  0  0  0  0  0  0  0  0  0
    3.2164   -2.3272   -0.2198 O   0  0  0  0  0  0  0  0  0  0  0  0
    0.8080   -0.5363    0.0381 C   0  0  2  0  0  0  0  0  0  0  0  0
    0.5441   -1.7096   -0.6916 O   0  0  0  0  0  0  0  0  0  0  0  0
   -0.1820    0.5694   -0.3784 C   0  0  0  0  0  0  0  0  0  0  0  0
   -1.6291    0.2113   -0.0109 C   0  0  0  0  0  0  0  0  0  0  0  0
   -2.5868    1.3516   -0.3754 C   0  0  0  0  0  0  0  0  0  0  0  0
   -4.0273    0.9978   -0.0172 C   0  0  0  0  0  0  0  0  0  0  0  0
    2.4132    0.8977    0.2911 H   0  0  0  0  0  0  0  0  0  0  0  0
    3.3155    0.5995   -1.6927 H   0  0  0  0  0  0  0  0  0  0  0  0
    4.3097   -0.6499    0.3120 H   0  0  0  0  0  0  0  0  0  0  0  0
    3.0731   -1.1950    1.4836 H   0  0  0  0  0  0  0  0  0  0  0  0
    3.7177   -2.2520   -1.0733 H   0  0  0  0  0  0  0  0  0  0  0  0
    0.6895   -0.7184    1.1340 H   0  0  0  0  0  0  0  0  0  0  0  0
   -0.0601   -2.2703   -0.1383 H   0  0  0  0  0  0  0  0  0  0  0  0
   -0.1123    0.7381   -1.4757 H   0  0  0  0  0  0  0  0  0  0  0  0
    0.0920    1.5170    0.1362 H   0  0  0  0  0  0  0  0  0  0  0  0
   -1.6939    0.0126    1.0817 H   0  0  0  0  0  0  0  0  0  0  0  0
   -1.9346   -0.7076   -0.5572 H   0  0  0  0  0  0  0  0  0  0  0  0
   -2.5277    1.5564   -1.4667 H   0  0  0  0  0  0  0  0  0  0  0  0
   -2.2972    2.2748    0.1724 H   0  0  0  0  0  0  0  0  0  0  0  0
   -4.1190    0.8120    1.0742 H   0  0  0  0  0  0  0  0  0  0  0  0
   -4.3517    0.0919   -0.5724 H   0  0  0  0  0  0  0  0  0  0  0  0
   -4.6962    1.8406   -0.2913 H   0  0  0  0  0  0  0  0  0  0  0  0
  1  2  1  0
  1  3  1  0
  3  4  1  0
  1  5  1  0
  5  6  1  0
  5  7  1  0
  7  8  1  0
  8  9  1  0
  9 10  1  0
  1 11  1  1
  2 12  1  0
  3 13  1  0
  3 14  1  0
  4 15  1  0
  5 16  1  1
  6 17  1  0
  7 18  1  0
  7 19  1  0
  8 20  1  0
  8 21  1  0
  9 22  1  0
  9 23  1  0
 10 24  1  0
 10 25  1  0
 10 26  1  0
M  END
$$$$
