
     RDKit          3D

 22 22  0  0  0  0  0  0  0  0999 V2000
   -0.3976   -2.1485   -1.5372 C   0  0  0  0  0  0  0  0  0  0  0  0
    0.1169   -1.1967   -0.5570 N   0  0  0  0  0  0  0  0  0  0  0  0
    1.3368   -1.3163   -0.0341 N   0  0  0  0  0  0  0  0  0  0  0  0
    1.6277   -0.3387    0.8513 C   0  0  0  0  0  0  0  0  0  0  0  0
    0.3485    0.7431    1.0271 S   0  0  0  0  0  0  0  0  0  0  0  0
   -0.5747   -0.1257   -0.0936 C   0  0  0  0  0  0  0  0  0  0  0  0
   -1.7836    0.1588   -0.4901 N   0  0  0  0  0  0  0  0  0  0  0  0
   -2.6077    1.2575   -0.0696 C   0  0  0  0  0  0  0  0  0  0  0  0
   -3.9700    1.4103   -0.6577 C   0  0  0  0  0  0  0  0  0  0  0  0
   -2.2259    2.0651    0.8195 O   0  0  0  0  0  0  0  0  0  0  0  0
    3.1514   -0.2234    1.7062 S   0  0  0  0  0  6  0  0  0  0  0  0
    3.7825    1.3783    1.5487 N   0  0  0  0  0  0  0  0  0  0  0  0
    2.9374   -0.5453    3.1580 O   0  0  0  0  0  0  0  0  0  0  0  0
    4.1298   -1.2018    1.1191 O   0  0  0  0  0  0  0  0  0  0  0  0
    0.3596   -2.9334   -1.7487 H   0  0  0  0  0  0  0  0  0  0  0  0
   -1.3148   -2.6349   -1.1431 H   0  0  0  0  0  0  0  0  0  0  0  0
   -0.6376   -1.6201   -2.4839 H   0  0  0  0  0  0  0  0  0  0  0  0
   -3.9842    1.0117   -1.6939 H   0  0  0  0  0  0  0  0  0  0  0  0
   -4.2584    2.4825   -0.6844 H   0  0  0  0  0  0  0  0  0  0  0  0
   -4.7032    0.8497   -0.0415 H   0  0  0  0  0  0  0  0  0  0  0  0
    3.9490    1.5424    0.5306 H   0  0  0  0  0  0  0  0  0  0  0  0
    4.7183    1.3853    2.0127 H   0  0  0  0  0  0  0  0  0  0  0  0
  1  2  1  0
  2  3  1  0
  3  4  2  0
  4  5  1  0
  5  6  1  0
  6  7  2  3
  7  8  1  0
  8  9  1  0
  8 10  2  0
  4 11  1  0
 11 12  1  0
 11 13  2  0
 11 14  2  0
  6  2  1  0
  1 15  1  0
  1 16  1  0
  1 17  1  0
  9 18  1  0
  9 19  1  0
  9 20  1  0
 12 21  1  0
 12 22  1  0
M  END
$$$$
