
     RDKit          3D

 46 49  0  0  0  0  0  0  0  0999 V2000
    7.5731   -0.5701   -1.2520 N   0  0  0  0  0  0  0  0  0  0  0  0
    6.2537   -0.1844   -0.8672 C   0  0  0  0  0  0  0  0  0  0  0  0
    6.0401    1.0334   -0.1724 C   0  0  0  0  0  0  0  0  0  0  0  0
    4.7375    1.4064    0.2045 C   0  0  0  0  0  0  0  0  0  0  0  0
    3.7018    0.5427   -0.1351 C   0  0  0  0  0  0  0  0  0  0  0  0
    2.3906    0.6761    0.1204 N   0  0  0  0  0  0  0  0  0  0  0  0
    1.8013   -0.4312   -0.4029 C   0  0  0  0  0  0  0  0  0  0  0  0
    2.7532   -1.2738   -0.9864 C   0  0  0  0  0  0  0  0  0  0  0  0
    3.9474   -0.6202   -0.8013 C   0  0  0  0  0  0  0  0  0  0  0  0
    5.1957   -0.9981   -1.1708 N   0  0  0  0  0  0  0  0  0  0  0  0
    0.3486   -0.7151   -0.3240 C   0  0  0  0  0  0  0  0  0  0  0  0
   -0.0844   -2.0388   -0.1446 C   0  0  0  0  0  0  0  0  0  0  0  0
   -1.4489   -2.3433   -0.0666 C   0  0  0  0  0  0  0  0  0  0  0  0
   -1.8966   -3.7603    0.1648 C   0  0  0  0  0  0  0  0  0  0  0  0
   -1.9664   -4.0432    1.6310 C   0  0  0  0  0  0  0  0  0  0  0  0
   -0.8322   -4.4827    2.3063 O   0  0  0  0  0  0  0  0  0  0  0  0
   -3.0388   -3.8450    2.2624 O   0  0  0  0  0  0  0  0  0  0  0  0
   -2.3901   -1.3094   -0.1338 C   0  0  0  0  0  0  0  0  0  0  0  0
   -1.9833    0.0213   -0.3122 C   0  0  0  0  0  0  0  0  0  0  0  0
   -0.6055    0.3184   -0.4419 C   0  0  0  0  0  0  0  0  0  0  0  0
   -0.1717    1.6155   -0.7333 O   0  0  0  0  0  0  0  0  0  0  0  0
   -3.0155    1.0815   -0.3387 C   0  0  0  0  0  0  0  0  0  0  0  0
   -4.0616    1.0245   -1.2714 C   0  0  0  0  0  0  0  0  0  0  0  0
   -5.0476    2.0125   -1.2828 C   0  0  0  0  0  0  0  0  0  0  0  0
   -5.0041    3.0602   -0.3598 C   0  0  0  0  0  0  0  0  0  0  0  0
   -3.9717    3.1294    0.5918 C   0  0  0  0  0  0  0  0  0  0  0  0
   -2.9815    2.1288    0.5974 C   0  0  0  0  0  0  0  0  0  0  0  0
   -3.9328    4.2067    1.5458 N   0  0  0  0  0  4  0  0  0  0  0  0
   -4.9053    5.1805    1.5409 O   0  0  0  0  0  1  0  0  0  0  0  0
   -3.0165    4.2766    2.3911 O   0  0  0  0  0  0  0  0  0  0  0  0
    8.3953    0.0346   -1.0303 H   0  0  0  0  0  0  0  0  0  0  0  0
    7.7308   -1.4670   -1.7627 H   0  0  0  0  0  0  0  0  0  0  0  0
    6.8738    1.6792    0.0717 H   0  0  0  0  0  0  0  0  0  0  0  0
    4.5497    2.3296    0.7372 H   0  0  0  0  0  0  0  0  0  0  0  0
    1.9360    1.4538    0.6485 H   0  0  0  0  0  0  0  0  0  0  0  0
    2.5923   -2.2239   -1.4788 H   0  0  0  0  0  0  0  0  0  0  0  0
    0.6417   -2.8374   -0.0479 H   0  0  0  0  0  0  0  0  0  0  0  0
   -1.1883   -4.4707   -0.3140 H   0  0  0  0  0  0  0  0  0  0  0  0
   -2.8925   -3.9318   -0.2995 H   0  0  0  0  0  0  0  0  0  0  0  0
   -0.8580   -4.6621    3.3030 H   0  0  0  0  0  0  0  0  0  0  0  0
   -3.4443   -1.5402   -0.0299 H   0  0  0  0  0  0  0  0  0  0  0  0
   -0.8030    2.3796   -0.9362 H   0  0  0  0  0  0  0  0  0  0  0  0
   -4.1086    0.2192   -1.9944 H   0  0  0  0  0  0  0  0  0  0  0  0
   -5.8488    1.9661   -2.0090 H   0  0  0  0  0  0  0  0  0  0  0  0
   -5.7801    3.8141   -0.3891 H   0  0  0  0  0  0  0  0  0  0  0  0
   -2.1843    2.1580    1.3303 H   0  0  0  0  0  0  0  0  0  0  0  0
  1  2  1  0
  2  3  2  0
  3  4  1  0
  4  5  2  0
  5  6  1  0
  6  7  1  0
  7  8  2  0
  8  9  1  0
  9 10  2  0
  7 11  1  0
 11 12  2  0
 12 13  1  0
 13 14  1  0
 14 15  1  0
 15 16  1  0
 15 17  2  0
 13 18  2  0
 18 19  1  0
 19 20  2  0
 20 21  1  0
 19 22  1  0
 22 23  2  0
 23 24  1  0
 24 25  2  0
 25 26  1  0
 26 27  2  0
 26 28  1  0
 28 29  1  0
 28 30  2  0
 10  2  1  0
 20 11  1  0
 27 22  1  0
  9  5  1  0
  1 31  1  0
  1 32  1  0
  3 33  1  0
  4 34  1  0
  6 35  1  0
  8 36  1  0
 12 37  1  0
 14 38  1  0
 14 39  1  0
 16 40  1  0
 18 41  1  0
 21 42  1  0
 23 43  1  0
 24 44  1  0
 25 45  1  0
 27 46  1  0
M  CHG  2  28   1  29  -1
M  END
$$$$
