
     RDKit          3D

 13 12  0  0  0  0  0  0  0  0999 V2000
   -1.1845   -1.8642    0.3288 O   0  0  0  0  0  0  0  0  0  0  0  0
   -0.8633   -0.5691    0.0872 N   0  0  0  0  0  0  0  0  0  0  0  0
    0.0977   -0.2493   -0.9657 C   0  0  0  0  0  0  0  0  0  0  0  0
    1.3701    0.2569   -0.3659 C   0  0  0  0  0  0  0  0  0  0  0  0
    1.6046    1.6261   -0.2892 O   0  0  0  0  0  0  0  0  0  0  0  0
    2.2124   -0.5543    0.1029 O   0  0  0  0  0  0  0  0  0  0  0  0
   -1.5085    0.4736    0.8268 C   0  0  0  0  0  0  0  0  0  0  0  0
   -2.3507    0.1929    1.7197 O   0  0  0  0  0  0  0  0  0  0  0  0
   -0.5395   -2.1627    1.0203 H   0  0  0  0  0  0  0  0  0  0  0  0
    0.3159   -1.1590   -1.5664 H   0  0  0  0  0  0  0  0  0  0  0  0
   -0.3325    0.5129   -1.6507 H   0  0  0  0  0  0  0  0  0  0  0  0
    2.4549    1.9848    0.1285 H   0  0  0  0  0  0  0  0  0  0  0  0
   -1.2765    1.5113    0.6236 H   0  0  0  0  0  0  0  0  0  0  0  0
  1  2  1  0
  2  3  1  0
  3  4  1  0
  4  5  1  0
  4  6  2  0
  2  7  1  0
  7  8  2  0
  1  9  1  0
  3 10  1  0
  3 11  1  0
  5 12  1  0
  7 13  1  0
M  END
$$$$
