
     RDKit          3D

 86 92  0  0  0  0  0  0  0  0999 V2000
   -1.9850    0.6795    1.3673 C   0  0  1  0  0  0  0  0  0  0  0  0
   -1.4364    1.2607    0.2305 O   0  0  0  0  0  0  0  0  0  0  0  0
   -2.0893    0.5337   -0.7720 C   0  0  2  0  0  0  0  0  0  0  0  0
   -1.8978    1.2295   -2.1255 C   0  0  0  0  0  0  0  0  0  0  0  0
   -2.5219    2.6018   -2.1564 C   0  0  0  0  0  0  0  0  0  0  0  0
   -1.8237    3.7108   -1.6496 C   0  0  0  0  0  0  0  0  0  0  0  0
   -2.4164    4.9772   -1.6521 C   0  0  0  0  0  0  0  0  0  0  0  0
   -3.7085    5.1452   -2.1575 C   0  0  0  0  0  0  0  0  0  0  0  0
   -4.4112    4.0465   -2.6597 C   0  0  0  0  0  0  0  0  0  0  0  0
   -3.8232    2.7778   -2.6569 C   0  0  0  0  0  0  0  0  0  0  0  0
   -3.4580    0.4947   -0.4419 O   0  0  0  0  0  0  0  0  0  0  0  0
   -3.4631    0.4212    0.9620 C   0  0  1  0  0  0  0  0  0  0  0  0
   -3.9392   -1.0024    1.3283 C   0  0  0  0  0  0  0  0  0  0  0  0
   -3.0807   -2.0751    0.5932 C   0  0  1  0  0  0  0  0  0  0  0  0
   -3.7989   -2.5389   -0.6972 C   0  0  0  0  0  0  0  0  0  0  0  0
   -1.5959   -1.5475    0.3634 C   0  0  2  0  0  0  0  0  0  0  0  0
   -1.5405   -0.7929   -0.8633 O   0  0  0  0  0  0  0  0  0  0  0  0
   -0.5439   -2.6971    0.2402 C   0  0  2  0  0  0  0  0  0  0  0  0
   -0.8560   -3.8246   -0.6976 C   0  0  0  0  0  0  0  0  0  0  0  0
   -0.3985   -4.9750   -0.2330 C   0  0  0  0  0  0  0  0  0  0  0  0
   -0.4909   -6.2823   -0.9535 C   0  0  0  0  0  0  0  0  0  0  0  0
    0.1208   -4.7865    1.1071 C   0  0  0  0  0  0  0  0  0  0  0  0
    0.6407   -5.6978    1.8052 O   0  0  0  0  0  0  0  0  0  0  0  0
   -0.1218   -3.3847    1.5772 C   0  0  2  0  0  0  0  0  0  0  0  0
   -1.1686   -3.4123    2.5174 O   0  0  0  0  0  0  0  0  0  0  0  0
    1.1361   -2.7181    2.1920 C   0  0  0  0  0  0  0  0  0  0  0  0
    1.2927   -1.2107    1.9856 C   0  0  0  0  0  0  0  0  0  0  0  0
    2.6959   -0.6522    2.0930 C   0  0  0  0  0  0  0  0  0  0  0  0
    3.0695   -0.0078    0.8762 O   0  0  0  0  0  0  0  0  0  0  0  0
    3.2950   -0.6965   -0.3209 C   0  0  0  0  0  0  0  0  0  0  0  0
    3.2964   -1.9573   -0.3507 O   0  0  0  0  0  0  0  0  0  0  0  0
    3.5737    0.0765   -1.5687 C   0  0  0  0  0  0  0  0  0  0  0  0
    4.9932    0.5714   -1.5604 C   0  0  0  0  0  0  0  0  0  0  0  0
    5.3105    1.8004   -0.9595 C   0  0  0  0  0  0  0  0  0  0  0  0
    6.6443    2.2528   -0.9169 C   0  0  0  0  0  0  0  0  0  0  0  0
    7.0004    3.4771   -0.3298 O   0  0  0  0  0  0  0  0  0  0  0  0
    6.0794    4.3780    0.2768 C   0  0  0  0  0  0  0  0  0  0  0  0
    7.6571    1.4592   -1.4748 C   0  0  0  0  0  0  0  0  0  0  0  0
    8.9783    1.9019   -1.4376 O   0  0  0  0  0  0  0  0  0  0  0  0
    7.3419    0.2271   -2.0630 C   0  0  0  0  0  0  0  0  0  0  0  0
    6.0190   -0.2172   -2.1008 C   0  0  0  0  0  0  0  0  0  0  0  0
    0.2920   -0.3276    1.7224 C   0  0  0  0  0  0  0  0  0  0  0  0
   -1.2005   -0.6307    1.5880 C   0  0  1  0  0  0  0  0  0  0  0  0
   -4.3968    1.4785    1.5497 C   0  0  0  0  0  0  0  0  0  0  0  0
   -5.1182    2.4446    0.6434 C   0  0  0  0  0  0  0  0  0  0  0  0
   -4.5368    1.5985    2.8822 C   0  0  0  0  0  0  0  0  0  0  0  0
   -1.8735    1.3608    2.2393 H   0  0  0  0  0  0  0  0  0  0  0  0
   -2.3411    0.5960   -2.9251 H   0  0  0  0  0  0  0  0  0  0  0  0
   -0.8105    1.3093   -2.3459 H   0  0  0  0  0  0  0  0  0  0  0  0
   -0.8236    3.5935   -1.2510 H   0  0  0  0  0  0  0  0  0  0  0  0
   -1.8747    5.8282   -1.2601 H   0  0  0  0  0  0  0  0  0  0  0  0
   -4.1664    6.1258   -2.1571 H   0  0  0  0  0  0  0  0  0  0  0  0
   -5.4141    4.1765   -3.0450 H   0  0  0  0  0  0  0  0  0  0  0  0
   -4.3839    1.9330   -3.0371 H   0  0  0  0  0  0  0  0  0  0  0  0
   -5.0197   -1.1110    1.0872 H   0  0  0  0  0  0  0  0  0  0  0  0
   -3.8538   -1.1561    2.4261 H   0  0  0  0  0  0  0  0  0  0  0  0
   -3.0761   -2.9660    1.2495 H   0  0  0  0  0  0  0  0  0  0  0  0
   -4.8713   -2.7417   -0.4919 H   0  0  0  0  0  0  0  0  0  0  0  0
   -3.7436   -1.7858   -1.5083 H   0  0  0  0  0  0  0  0  0  0  0  0
   -3.3888   -3.4958   -1.0658 H   0  0  0  0  0  0  0  0  0  0  0  0
    0.3636   -2.2428   -0.2208 H   0  0  0  0  0  0  0  0  0  0  0  0
   -1.2246   -3.6948   -1.7071 H   0  0  0  0  0  0  0  0  0  0  0  0
    0.3417   -6.9481   -0.6439 H   0  0  0  0  0  0  0  0  0  0  0  0
   -1.4573   -6.7705   -0.7097 H   0  0  0  0  0  0  0  0  0  0  0  0
   -0.4275   -6.1255   -2.0513 H   0  0  0  0  0  0  0  0  0  0  0  0
   -0.8784   -3.9647    3.2905 H   0  0  0  0  0  0  0  0  0  0  0  0
    1.1844   -2.9249    3.2825 H   0  0  0  0  0  0  0  0  0  0  0  0
    2.0320   -3.2082    1.7513 H   0  0  0  0  0  0  0  0  0  0  0  0
    3.4385   -1.4414    2.3416 H   0  0  0  0  0  0  0  0  0  0  0  0
    2.7258    0.0941    2.9151 H   0  0  0  0  0  0  0  0  0  0  0  0
    3.3917   -0.5621   -2.4609 H   0  0  0  0  0  0  0  0  0  0  0  0
    2.8673    0.9324   -1.6320 H   0  0  0  0  0  0  0  0  0  0  0  0
    4.5157    2.3935   -0.5268 H   0  0  0  0  0  0  0  0  0  0  0  0
    5.3326    4.7211   -0.4700 H   0  0  0  0  0  0  0  0  0  0  0  0
    6.6330    5.2609    0.6567 H   0  0  0  0  0  0  0  0  0  0  0  0
    5.5685    3.8845    1.1305 H   0  0  0  0  0  0  0  0  0  0  0  0
    9.7332    1.3520   -1.8308 H   0  0  0  0  0  0  0  0  0  0  0  0
    8.1237   -0.3892   -2.4883 H   0  0  0  0  0  0  0  0  0  0  0  0
    5.7940   -1.1767   -2.5503 H   0  0  0  0  0  0  0  0  0  0  0  0
    0.5821    0.7171    1.6259 H   0  0  0  0  0  0  0  0  0  0  0  0
   -1.5300   -1.0604    2.5559 H   0  0  0  0  0  0  0  0  0  0  0  0
   -5.9111    3.0066    1.1820 H   0  0  0  0  0  0  0  0  0  0  0  0
   -5.6020    1.8960   -0.1915 H   0  0  0  0  0  0  0  0  0  0  0  0
   -4.3886    3.1719    0.2331 H   0  0  0  0  0  0  0  0  0  0  0  0
   -4.0064    0.9407    3.5633 H   0  0  0  0  0  0  0  0  0  0  0  0
   -5.1761    2.3624    3.3142 H   0  0  0  0  0  0  0  0  0  0  0  0
  1  2  1  0
  2  3  1  0
  3  4  1  6
  4  5  1  0
  5  6  2  0
  6  7  1  0
  7  8  2  0
  8  9  1  0
  9 10  2  0
  3 11  1  0
 11 12  1  0
 12 13  1  0
 13 14  1  0
 14 15  1  0
 14 16  1  0
 16 17  1  6
 16 18  1  0
 18 19  1  0
 19 20  2  0
 20 21  1  0
 20 22  1  0
 22 23  2  0
 22 24  1  0
 24 25  1  1
 24 26  1  0
 26 27  1  0
 27 28  1  0
 28 29  1  0
 29 30  1  0
 30 31  2  0
 30 32  1  0
 32 33  1  0
 33 34  2  0
 34 35  1  0
 35 36  1  0
 36 37  1  0
 35 38  2  0
 38 39  1  0
 38 40  1  0
 40 41  2  0
 27 42  2  0
 42 43  1  0
 12 44  1  1
 44 45  1  0
 44 46  2  3
 12  1  1  0
 43 16  1  0
 43  1  1  0
 17  3  1  0
 24 18  1  0
 41 33  1  0
 10  5  1  0
  1 47  1  1
  4 48  1  0
  4 49  1  0
  6 50  1  0
  7 51  1  0
  8 52  1  0
  9 53  1  0
 10 54  1  0
 13 55  1  0
 13 56  1  0
 14 57  1  1
 15 58  1  0
 15 59  1  0
 15 60  1  0
 18 61  1  6
 19 62  1  0
 21 63  1  0
 21 64  1  0
 21 65  1  0
 25 66  1  0
 26 67  1  0
 26 68  1  0
 28 69  1  0
 28 70  1  0
 32 71  1  0
 32 72  1  0
 34 73  1  0
 37 74  1  0
 37 75  1  0
 37 76  1  0
 39 77  1  0
 40 78  1  0
 41 79  1  0
 42 80  1  0
 43 81  1  1
 45 82  1  0
 45 83  1  0
 45 84  1  0
 46 85  1  0
 46 86  1  0
M  END
$$$$
