
     RDKit          3D

 61 65  0  0  0  0  0  0  0  0999 V2000
    8.8487    1.0337    1.2854 C   0  0  0  0  0  0  0  0  0  0  0  0
    8.5623    0.8945   -0.1525 N   0  0  0  0  0  0  0  0  0  0  0  0
    8.1275   -0.4703   -0.5148 C   0  0  0  0  0  0  0  0  0  0  0  0
    6.6937   -0.7762   -0.0595 C   0  0  0  0  0  0  0  0  0  0  0  0
    5.7898    0.2963   -0.4834 N   0  0  0  0  0  0  0  0  0  0  0  0
    6.1817    1.6779   -0.1919 C   0  0  0  0  0  0  0  0  0  0  0  0
    7.6259    1.9244   -0.6479 C   0  0  0  0  0  0  0  0  0  0  0  0
    4.4256   -0.0005   -0.8378 C   0  0  0  0  0  0  0  0  0  0  0  0
    3.8328    0.6263   -1.9448 C   0  0  0  0  0  0  0  0  0  0  0  0
    2.5110    0.3396   -2.2967 C   0  0  0  0  0  0  0  0  0  0  0  0
    1.7539   -0.5663   -1.5406 C   0  0  0  0  0  0  0  0  0  0  0  0
    0.4035   -0.8599   -1.9364 N   0  0  0  0  0  0  0  0  0  0  0  0
   -0.6645   -1.1315   -1.0177 C   0  0  0  0  0  0  0  0  0  0  0  0
   -1.8516   -1.6181   -1.4940 N   0  0  0  0  0  0  0  0  0  0  0  0
   -2.9116   -1.8577   -0.6719 C   0  0  0  0  0  0  0  0  0  0  0  0
   -4.0980   -2.3716   -1.2100 O   0  0  0  0  0  0  0  0  0  0  0  0
   -5.3838   -1.8967   -0.9137 C   0  0  0  0  0  0  0  0  0  0  0  0
   -6.4738   -2.7552   -1.0889 C   0  0  0  0  0  0  0  0  0  0  0  0
   -7.7707   -2.3138   -0.8178 C   0  0  0  0  0  0  0  0  0  0  0  0
   -7.9894   -1.0085   -0.3703 C   0  0  0  0  0  0  0  0  0  0  0  0
   -6.9059   -0.1310   -0.1864 C   0  0  0  0  0  0  0  0  0  0  0  0
   -7.1063    1.2269    0.2437 N   0  0  0  0  0  0  0  0  0  0  0  0
   -8.1646    1.6337    1.1286 C   0  0  0  0  0  0  0  0  0  0  0  0
   -8.7153    0.7867    1.8822 O   0  0  0  0  0  0  0  0  0  0  0  0
   -8.5922    3.0423    1.2251 C   0  0  0  0  0  0  0  0  0  0  0  0
   -8.2553    3.9710    0.3316 C   0  0  0  0  0  0  0  0  0  0  0  0
   -5.6083   -0.5752   -0.4843 C   0  0  0  0  0  0  0  0  0  0  0  0
   -2.7467   -1.6094    0.6925 C   0  0  0  0  0  0  0  0  0  0  0  0
   -3.7822   -1.8678    1.9917 S   0  0  0  0  0  0  0  0  0  0  0  0
   -2.6985   -1.3115    3.1675 C   0  0  0  0  0  0  0  0  0  0  0  0
   -1.5092   -0.9316    2.5472 C   0  0  0  0  0  0  0  0  0  0  0  0
   -1.5503   -1.1128    1.1635 C   0  0  0  0  0  0  0  0  0  0  0  0
   -0.5213   -0.8680    0.3159 N   0  0  0  0  0  0  0  0  0  0  0  0
    2.3549   -1.2159   -0.4484 C   0  0  0  0  0  0  0  0  0  0  0  0
    3.6774   -0.9308   -0.0971 C   0  0  0  0  0  0  0  0  0  0  0  0
    9.6268    0.3018    1.5902 H   0  0  0  0  0  0  0  0  0  0  0  0
    7.9436    0.8717    1.9064 H   0  0  0  0  0  0  0  0  0  0  0  0
    9.2512    2.0473    1.4968 H   0  0  0  0  0  0  0  0  0  0  0  0
    8.8223   -1.2252   -0.0855 H   0  0  0  0  0  0  0  0  0  0  0  0
    8.1822   -0.5815   -1.6200 H   0  0  0  0  0  0  0  0  0  0  0  0
    6.3824   -1.7440   -0.5107 H   0  0  0  0  0  0  0  0  0  0  0  0
    6.6525   -0.8844    1.0450 H   0  0  0  0  0  0  0  0  0  0  0  0
    6.0839    1.8662    0.8980 H   0  0  0  0  0  0  0  0  0  0  0  0
    5.5172    2.4004   -0.7120 H   0  0  0  0  0  0  0  0  0  0  0  0
    7.6530    1.9289   -1.7597 H   0  0  0  0  0  0  0  0  0  0  0  0
    7.9522    2.9353   -0.3183 H   0  0  0  0  0  0  0  0  0  0  0  0
    4.4006    1.3247   -2.5462 H   0  0  0  0  0  0  0  0  0  0  0  0
    2.0721    0.8301   -3.1566 H   0  0  0  0  0  0  0  0  0  0  0  0
    0.1612   -0.7911   -2.9509 H   0  0  0  0  0  0  0  0  0  0  0  0
   -6.3142   -3.7685   -1.4352 H   0  0  0  0  0  0  0  0  0  0  0  0
   -8.6094   -2.9827   -0.9619 H   0  0  0  0  0  0  0  0  0  0  0  0
   -9.0051   -0.6797   -0.1954 H   0  0  0  0  0  0  0  0  0  0  0  0
   -6.3722    1.9284   -0.0021 H   0  0  0  0  0  0  0  0  0  0  0  0
   -9.2414    3.3271    2.0442 H   0  0  0  0  0  0  0  0  0  0  0  0
   -7.6485    3.7423   -0.5338 H   0  0  0  0  0  0  0  0  0  0  0  0
   -8.6132    4.9853    0.4513 H   0  0  0  0  0  0  0  0  0  0  0  0
   -4.7760    0.1088   -0.3784 H   0  0  0  0  0  0  0  0  0  0  0  0
   -2.8917   -1.2670    4.2306 H   0  0  0  0  0  0  0  0  0  0  0  0
   -0.6475   -0.5537    3.0817 H   0  0  0  0  0  0  0  0  0  0  0  0
    1.8128   -1.9601    0.1195 H   0  0  0  0  0  0  0  0  0  0  0  0
    4.1157   -1.4328    0.7558 H   0  0  0  0  0  0  0  0  0  0  0  0
  1  2  1  0
  2  3  1  0
  3  4  1  0
  4  5  1  0
  5  6  1  0
  6  7  1  0
  5  8  1  0
  8  9  2  0
  9 10  1  0
 10 11  2  0
 11 12  1  0
 12 13  1  0
 13 14  2  0
 14 15  1  0
 15 16  1  0
 16 17  1  0
 17 18  2  0
 18 19  1  0
 19 20  2  0
 20 21  1  0
 21 22  1  0
 22 23  1  0
 23 24  2  0
 23 25  1  0
 25 26  2  3
 21 27  2  0
 15 28  2  0
 28 29  1  0
 29 30  1  0
 30 31  2  0
 31 32  1  0
 32 33  2  0
 11 34  1  0
 34 35  2  0
  7  2  1  0
 35  8  1  0
 33 13  1  0
 27 17  1  0
 32 28  1  0
  1 36  1  0
  1 37  1  0
  1 38  1  0
  3 39  1  0
  3 40  1  0
  4 41  1  0
  4 42  1  0
  6 43  1  0
  6 44  1  0
  7 45  1  0
  7 46  1  0
  9 47  1  0
 10 48  1  0
 12 49  1  0
 18 50  1  0
 19 51  1  0
 20 52  1  0
 22 53  1  0
 25 54  1  0
 26 55  1  0
 26 56  1  0
 27 57  1  0
 30 58  1  0
 31 59  1  0
 34 60  1  0
 35 61  1  0
M  END
$$$$
