
     RDKit          3D

 48 50  0  0  0  0  0  0  0  0999 V2000
    6.7821    4.0684   -1.5099 C   0  0  0  0  0  0  0  0  0  0  0  0
    5.6335    3.1982   -1.2908 N   0  0  0  0  0  0  0  0  0  0  0  0
    4.4872    3.6378   -0.5477 C   0  0  0  0  0  0  0  0  0  0  0  0
    4.3922    4.8483   -0.2051 O   0  0  0  0  0  0  0  0  0  0  0  0
    3.3937    2.6998   -0.2059 C   0  0  0  0  0  0  0  0  0  0  0  0
    3.6525    1.3502    0.1089 C   0  0  0  0  0  0  0  0  0  0  0  0
    4.9219    0.8734    0.1586 F   0  0  0  0  0  0  0  0  0  0  0  0
    2.5986    0.4873    0.4266 C   0  0  0  0  0  0  0  0  0  0  0  0
    1.2805    0.9563    0.4452 C   0  0  0  0  0  0  0  0  0  0  0  0
    1.0191    2.2984    0.1459 C   0  0  0  0  0  0  0  0  0  0  0  0
    2.0675    3.1655   -0.1709 C   0  0  0  0  0  0  0  0  0  0  0  0
    0.2028    0.0679    0.7756 N   0  0  0  0  0  0  0  0  0  0  0  0
   -0.7944   -0.3901   -0.1411 C   0  0  0  0  0  0  0  0  0  0  0  0
   -0.8624    0.0831   -1.7128 S   0  0  0  0  0  0  0  0  0  0  0  0
   -1.8566   -1.0627    0.5245 N   0  0  0  0  0  0  0  0  0  0  0  0
   -1.5046   -1.0219    1.9037 C   0  0  0  0  0  0  0  0  0  0  0  0
   -2.1965   -1.5585    2.8109 O   0  0  0  0  0  0  0  0  0  0  0  0
   -0.2060   -0.2989    2.1408 C   0  0  0  0  0  0  0  0  0  0  0  0
   -0.4436    0.9525    2.9997 C   0  0  0  0  0  0  0  0  0  0  0  0
    0.8243   -1.2358    2.7858 C   0  0  0  0  0  0  0  0  0  0  0  0
   -3.0111   -1.6963   -0.0523 C   0  0  0  0  0  0  0  0  0  0  0  0
   -4.2727   -1.5214    0.5289 C   0  0  0  0  0  0  0  0  0  0  0  0
   -5.3952   -2.1375   -0.0238 C   0  0  0  0  0  0  0  0  0  0  0  0
   -5.2747   -2.9416   -1.1640 C   0  0  0  0  0  0  0  0  0  0  0  0
   -6.4659   -3.5587   -1.6982 C   0  0  0  0  0  0  0  0  0  0  0  0
   -7.4209   -4.0531   -2.1259 N   0  0  0  0  0  0  0  0  0  0  0  0
   -4.0067   -3.1358   -1.7628 C   0  0  0  0  0  0  0  0  0  0  0  0
   -2.8828   -2.5076   -1.1898 C   0  0  0  0  0  0  0  0  0  0  0  0
   -3.8526   -4.0086   -2.9929 C   0  0  0  0  0  0  0  0  0  0  0  0
   -2.5397   -4.0592   -3.4296 F   0  0  0  0  0  0  0  0  0  0  0  0
   -4.2635   -5.2967   -2.7012 F   0  0  0  0  0  0  0  0  0  0  0  0
   -4.6313   -3.5055   -4.0194 F   0  0  0  0  0  0  0  0  0  0  0  0
    6.4643    4.9848   -2.0505 H   0  0  0  0  0  0  0  0  0  0  0  0
    7.5456    3.5399   -2.1189 H   0  0  0  0  0  0  0  0  0  0  0  0
    7.2321    4.3490   -0.5344 H   0  0  0  0  0  0  0  0  0  0  0  0
    5.6366    2.2525   -1.7338 H   0  0  0  0  0  0  0  0  0  0  0  0
    2.8087   -0.5488    0.6595 H   0  0  0  0  0  0  0  0  0  0  0  0
    0.0024    2.6705    0.1633 H   0  0  0  0  0  0  0  0  0  0  0  0
    1.8407    4.1990   -0.4026 H   0  0  0  0  0  0  0  0  0  0  0  0
    0.5066    1.5094    3.1447 H   0  0  0  0  0  0  0  0  0  0  0  0
   -0.8399    0.6689    3.9983 H   0  0  0  0  0  0  0  0  0  0  0  0
   -1.1751    1.6279    2.5055 H   0  0  0  0  0  0  0  0  0  0  0  0
    1.7814   -0.7000    2.9588 H   0  0  0  0  0  0  0  0  0  0  0  0
    1.0203   -2.1083    2.1259 H   0  0  0  0  0  0  0  0  0  0  0  0
    0.4525   -1.6067    3.7650 H   0  0  0  0  0  0  0  0  0  0  0  0
   -4.3901   -0.8930    1.4025 H   0  0  0  0  0  0  0  0  0  0  0  0
   -6.3629   -1.9839    0.4392 H   0  0  0  0  0  0  0  0  0  0  0  0
   -1.8979   -2.6584   -1.6115 H   0  0  0  0  0  0  0  0  0  0  0  0
  1  2  1  0
  2  3  1  0
  3  4  2  0
  3  5  1  0
  5  6  2  0
  6  7  1  0
  6  8  1  0
  8  9  2  0
  9 10  1  0
 10 11  2  0
  9 12  1  0
 12 13  1  0
 13 14  2  0
 13 15  1  0
 15 16  1  0
 16 17  2  0
 16 18  1  0
 18 19  1  0
 18 20  1  0
 15 21  1  0
 21 22  2  0
 22 23  1  0
 23 24  2  0
 24 25  1  0
 25 26  3  0
 24 27  1  0
 27 28  2  0
 27 29  1  0
 29 30  1  0
 29 31  1  0
 29 32  1  0
 11  5  1  0
 18 12  1  0
 28 21  1  0
  1 33  1  0
  1 34  1  0
  1 35  1  0
  2 36  1  0
  8 37  1  0
 10 38  1  0
 11 39  1  0
 19 40  1  0
 19 41  1  0
 19 42  1  0
 20 43  1  0
 20 44  1  0
 20 45  1  0
 22 46  1  0
 23 47  1  0
 28 48  1  0
M  END
$$$$
