
     RDKit          3D

 44 47  0  0  0  0  0  0  0  0999 V2000
   -6.4299    3.1286    0.9623 N   0  0  0  0  0  0  0  0  0  0  0  0
   -5.2806    2.5202    0.3674 C   0  0  0  0  0  0  0  0  0  0  0  0
   -4.2470    3.2190    0.1884 O   0  0  0  0  0  0  0  0  0  0  0  0
   -5.2819    1.0908   -0.0297 C   0  0  0  0  0  0  0  0  0  0  0  0
   -6.4850    0.3945   -0.3059 C   0  0  0  0  0  0  0  0  0  0  0  0
   -6.4635   -0.9651   -0.6928 C   0  0  0  0  0  0  0  0  0  0  0  0
   -5.2456   -1.6549   -0.8149 C   0  0  0  0  0  0  0  0  0  0  0  0
   -4.0792   -0.9493   -0.5446 C   0  0  0  0  0  0  0  0  0  0  0  0
   -2.7578   -1.3235   -0.5725 C   0  0  0  0  0  0  0  0  0  0  0  0
   -2.0223   -0.2385   -0.2172 N   0  0  0  0  0  0  0  0  0  0  0  0
   -2.8273    0.7933    0.0267 N   0  0  0  0  0  0  0  0  0  0  0  0
   -4.0881    0.3668   -0.1723 C   0  0  0  0  0  0  0  0  0  0  0  0
   -0.5848   -0.1604   -0.1171 C   0  0  0  0  0  0  0  0  0  0  0  0
    0.0443    1.0918   -0.0061 C   0  0  0  0  0  0  0  0  0  0  0  0
    1.4348    1.1859    0.0933 C   0  0  0  0  0  0  0  0  0  0  0  0
    2.2316    0.0296    0.0888 C   0  0  0  0  0  0  0  0  0  0  0  0
    1.6044   -1.2249   -0.0160 C   0  0  0  0  0  0  0  0  0  0  0  0
    0.2137   -1.3194   -0.1162 C   0  0  0  0  0  0  0  0  0  0  0  0
    3.7409    0.1483    0.1973 C   0  0  2  0  0  0  0  0  0  0  0  0
    4.4388   -0.4079   -1.0561 C   0  0  0  0  0  0  0  0  0  0  0  0
    5.9596   -0.3267   -0.9008 C   0  0  0  0  0  0  0  0  0  0  0  0
    6.4051   -1.0096    0.4003 C   0  0  0  0  0  0  0  0  0  0  0  0
    5.7338   -0.4261    1.5712 N   0  0  0  0  0  0  0  0  0  0  0  0
    4.2728   -0.5546    1.4642 C   0  0  0  0  0  0  0  0  0  0  0  0
   -6.4236    4.1496    1.1810 H   0  0  0  0  0  0  0  0  0  0  0  0
   -7.2546    2.5661    1.2652 H   0  0  0  0  0  0  0  0  0  0  0  0
   -7.4414    0.8959   -0.2505 H   0  0  0  0  0  0  0  0  0  0  0  0
   -7.3929   -1.4782   -0.9031 H   0  0  0  0  0  0  0  0  0  0  0  0
   -5.2180   -2.6956   -1.1111 H   0  0  0  0  0  0  0  0  0  0  0  0
   -2.3741   -2.2969   -0.8454 H   0  0  0  0  0  0  0  0  0  0  0  0
   -0.5406    2.0027   -0.0035 H   0  0  0  0  0  0  0  0  0  0  0  0
    1.8880    2.1662    0.1735 H   0  0  0  0  0  0  0  0  0  0  0  0
    2.1892   -2.1354   -0.0173 H   0  0  0  0  0  0  0  0  0  0  0  0
   -0.2285   -2.3032   -0.1778 H   0  0  0  0  0  0  0  0  0  0  0  0
    4.0148    1.2250    0.2782 H   0  0  0  0  0  0  0  0  0  0  0  0
    4.1522   -1.4688   -1.2258 H   0  0  0  0  0  0  0  0  0  0  0  0
    4.1305    0.1792   -1.9486 H   0  0  0  0  0  0  0  0  0  0  0  0
    6.2790    0.7386   -0.8911 H   0  0  0  0  0  0  0  0  0  0  0  0
    6.4471   -0.8248   -1.7662 H   0  0  0  0  0  0  0  0  0  0  0  0
    7.5039   -0.8898    0.5144 H   0  0  0  0  0  0  0  0  0  0  0  0
    6.1937   -2.1007    0.3486 H   0  0  0  0  0  0  0  0  0  0  0  0
    5.9841    0.5890    1.6373 H   0  0  0  0  0  0  0  0  0  0  0  0
    3.9989   -1.6323    1.4651 H   0  0  0  0  0  0  0  0  0  0  0  0
    3.8055   -0.0943    2.3620 H   0  0  0  0  0  0  0  0  0  0  0  0
  1  2  1  0
  2  3  2  0
  2  4  1  0
  4  5  2  0
  5  6  1  0
  6  7  2  0
  7  8  1  0
  8  9  2  0
  9 10  1  0
 10 11  1  0
 11 12  2  0
 10 13  1  0
 13 14  2  0
 14 15  1  0
 15 16  2  0
 16 17  1  0
 17 18  2  0
 16 19  1  0
 19 20  1  0
 20 21  1  0
 21 22  1  0
 22 23  1  0
 23 24  1  0
 12  4  1  0
 18 13  1  0
 24 19  1  0
 12  8  1  0
  1 25  1  0
  1 26  1  0
  5 27  1  0
  6 28  1  0
  7 29  1  0
  9 30  1  0
 14 31  1  0
 15 32  1  0
 17 33  1  0
 18 34  1  0
 19 35  1  1
 20 36  1  0
 20 37  1  0
 21 38  1  0
 21 39  1  0
 22 40  1  0
 22 41  1  0
 23 42  1  0
 24 43  1  0
 24 44  1  0
M  END
$$$$
