
     RDKit          3D

 41 42  0  0  0  0  0  0  0  0999 V2000
   -3.3654    1.1048   -0.3790 C   0  0  1  0  0  0  0  0  0  0  0  0
   -4.6403    0.8774    0.4486 C   0  0  0  0  0  0  0  0  0  0  0  0
   -5.6984    0.4835   -0.3816 O   0  0  0  0  0  0  0  0  0  0  0  0
   -2.3942    1.7430    0.4511 O   0  0  0  0  0  0  0  0  0  0  0  0
   -1.1943    1.0151    0.6553 C   0  0  1  0  0  0  0  0  0  0  0  0
   -0.4557    1.6704    1.7377 N   0  0  0  0  0  0  0  0  0  0  0  0
    0.8359    1.6400    1.8930 C   0  0  0  0  0  0  0  0  0  0  0  0
    1.4044    2.3277    2.9621 O   0  0  0  0  0  0  0  0  0  0  0  0
    1.6660    0.9667    0.9338 N   0  0  0  0  0  0  0  0  0  0  0  0
    2.8528    0.4601    1.1187 C   0  0  0  0  0  0  0  0  0  0  0  0
    3.4414    0.4001    2.3861 O   0  0  0  0  0  0  0  0  0  0  0  0
    3.5893   -0.1052   -0.0382 C   0  0  0  0  0  0  0  0  0  0  0  0
    4.8900   -0.6163    0.1312 C   0  0  0  0  0  0  0  0  0  0  0  0
    5.5880   -1.1538   -0.9548 C   0  0  0  0  0  0  0  0  0  0  0  0
    4.9981   -1.1888   -2.2199 C   0  0  0  0  0  0  0  0  0  0  0  0
    3.7083   -0.6864   -2.4025 C   0  0  0  0  0  0  0  0  0  0  0  0
    3.0051   -0.1472   -1.3209 C   0  0  0  0  0  0  0  0  0  0  0  0
   -1.4889   -0.4524    1.0326 C   0  0  2  0  0  0  0  0  0  0  0  0
   -0.2933   -1.1233    1.3378 O   0  0  0  0  0  0  0  0  0  0  0  0
   -2.2152   -1.1805   -0.1243 C   0  0  1  0  0  0  0  0  0  0  0  0
   -3.1802   -2.0595    0.3962 O   0  0  0  0  0  0  0  0  0  0  0  0
   -2.8959   -0.1923   -1.1003 C   0  0  2  0  0  0  0  0  0  0  0  0
   -2.0053    0.1608   -2.1303 O   0  0  0  0  0  0  0  0  0  0  0  0
   -3.6366    1.8353   -1.1732 H   0  0  0  0  0  0  0  0  0  0  0  0
   -4.9129    1.8288    0.9584 H   0  0  0  0  0  0  0  0  0  0  0  0
   -4.4620    0.1074    1.2302 H   0  0  0  0  0  0  0  0  0  0  0  0
   -6.4790    0.3429    0.2149 H   0  0  0  0  0  0  0  0  0  0  0  0
   -0.5862    1.0640   -0.2757 H   0  0  0  0  0  0  0  0  0  0  0  0
    0.8282    2.8237    3.6319 H   0  0  0  0  0  0  0  0  0  0  0  0
    2.9364    0.5599    3.2462 H   0  0  0  0  0  0  0  0  0  0  0  0
    5.3708   -0.6008    1.1011 H   0  0  0  0  0  0  0  0  0  0  0  0
    6.5879   -1.5438   -0.8148 H   0  0  0  0  0  0  0  0  0  0  0  0
    5.5404   -1.6057   -3.0588 H   0  0  0  0  0  0  0  0  0  0  0  0
    3.2516   -0.7152   -3.3834 H   0  0  0  0  0  0  0  0  0  0  0  0
    2.0052    0.2324   -1.4903 H   0  0  0  0  0  0  0  0  0  0  0  0
   -2.1433   -0.4342    1.9367 H   0  0  0  0  0  0  0  0  0  0  0  0
   -0.5430   -1.9382    1.8467 H   0  0  0  0  0  0  0  0  0  0  0  0
   -1.4723   -1.7746   -0.7089 H   0  0  0  0  0  0  0  0  0  0  0  0
   -2.6891   -2.8307    0.7835 H   0  0  0  0  0  0  0  0  0  0  0  0
   -3.7816   -0.6877   -1.5644 H   0  0  0  0  0  0  0  0  0  0  0  0
   -1.9665   -0.6073   -2.7587 H   0  0  0  0  0  0  0  0  0  0  0  0
  1  2  1  0
  2  3  1  0
  1  4  1  0
  4  5  1  0
  5  6  1  0
  6  7  2  3
  7  8  1  0
  7  9  1  0
  9 10  2  3
 10 11  1  0
 10 12  1  0
 12 13  2  0
 13 14  1  0
 14 15  2  0
 15 16  1  0
 16 17  2  0
  5 18  1  0
 18 19  1  0
 18 20  1  0
 20 21  1  0
 20 22  1  0
 22 23  1  0
 22  1  1  0
 17 12  1  0
  1 24  1  6
  2 25  1  0
  2 26  1  0
  3 27  1  0
  5 28  1  6
  8 29  1  0
 11 30  1  0
 13 31  1  0
 14 32  1  0
 15 33  1  0
 16 34  1  0
 17 35  1  0
 18 36  1  1
 19 37  1  0
 20 38  1  6
 21 39  1  0
 22 40  1  6
 23 41  1  0
M  END
$$$$
