
     RDKit          3D

 37 39  0  0  0  0  0  0  0  0999 V2000
   -5.4091    0.7176    1.8935 N   0  0  0  0  0  0  0  0  0  0  0  0
   -4.7383    0.1480    0.7693 C   0  0  0  0  0  0  0  0  0  0  0  0
   -3.3571   -0.0070    0.7412 C   0  0  0  0  0  0  0  0  0  0  0  0
   -2.4375    0.3378    1.6623 N   0  0  0  0  0  0  0  0  0  0  0  0
   -1.2671   -0.0264    1.0686 C   0  0  0  0  0  0  0  0  0  0  0  0
   -1.4360   -0.5839   -0.1597 N   0  0  0  0  0  0  0  0  0  0  0  0
   -0.4053   -0.9914   -1.1173 C   0  0  2  0  0  0  0  0  0  0  0  0
    0.6879   -1.5607   -0.4247 O   0  0  0  0  0  0  0  0  0  0  0  0
    1.8427   -0.8285   -0.7672 C   0  0  2  0  0  0  0  0  0  0  0  0
    2.7606   -0.7105    0.4535 C   0  0  0  0  0  0  0  0  0  0  0  0
    3.9394   -0.0299    0.0908 O   0  0  0  0  0  0  0  0  0  0  0  0
    4.9221    0.1229    1.4765 P   0  0  0  0  0  5  0  0  0  0  0  0
    4.0934    0.9536    2.6972 O   0  0  0  0  0  0  0  0  0  0  0  0
    6.3175    0.9876    1.0680 O   0  0  0  0  0  0  0  0  0  0  0  0
    5.3234   -1.2449    1.9815 O   0  0  0  0  0  0  0  0  0  0  0  0
    1.4049    0.5305   -1.2968 C   0  0  1  0  0  0  0  0  0  0  0  0
    2.3318    1.0349   -2.2236 O   0  0  0  0  0  0  0  0  0  0  0  0
    0.0734    0.2158   -1.9296 C   0  0  1  0  0  0  0  0  0  0  0  0
    0.2401   -0.1416   -3.2789 O   0  0  0  0  0  0  0  0  0  0  0  0
   -2.7608   -0.5469   -0.3459 C   0  0  0  0  0  0  0  0  0  0  0  0
   -3.4553   -0.9461   -1.4390 N   0  0  0  0  0  0  0  0  0  0  0  0
   -4.8148   -0.8012   -1.4214 C   0  0  0  0  0  0  0  0  0  0  0  0
   -5.4435   -0.2606   -0.3281 N   0  0  0  0  0  0  0  0  0  0  0  0
   -4.8764    1.0331    2.7345 H   0  0  0  0  0  0  0  0  0  0  0  0
   -6.4476    0.8244    1.8856 H   0  0  0  0  0  0  0  0  0  0  0  0
   -0.3003    0.1308    1.5278 H   0  0  0  0  0  0  0  0  0  0  0  0
   -0.8295   -1.7676   -1.7926 H   0  0  0  0  0  0  0  0  0  0  0  0
    2.3823   -1.3876   -1.5659 H   0  0  0  0  0  0  0  0  0  0  0  0
    2.9996   -1.7408    0.8022 H   0  0  0  0  0  0  0  0  0  0  0  0
    2.2148   -0.1704    1.2603 H   0  0  0  0  0  0  0  0  0  0  0  0
    3.8175    1.8074    2.2780 H   0  0  0  0  0  0  0  0  0  0  0  0
    5.9836    1.8405    0.6912 H   0  0  0  0  0  0  0  0  0  0  0  0
    1.2584    1.2498   -0.4557 H   0  0  0  0  0  0  0  0  0  0  0  0
    2.0624    1.9727   -2.4063 H   0  0  0  0  0  0  0  0  0  0  0  0
   -0.6126    1.0918   -1.8445 H   0  0  0  0  0  0  0  0  0  0  0  0
   -0.6662   -0.1403   -3.6841 H   0  0  0  0  0  0  0  0  0  0  0  0
   -5.3986   -1.1129   -2.2765 H   0  0  0  0  0  0  0  0  0  0  0  0
  1  2  1  0
  2  3  2  0
  3  4  1  0
  4  5  2  0
  5  6  1  0
  6  7  1  0
  7  8  1  0
  8  9  1  0
  9 10  1  0
 10 11  1  0
 11 12  1  0
 12 13  1  0
 12 14  1  0
 12 15  2  0
  9 16  1  0
 16 17  1  0
 16 18  1  0
 18 19  1  0
  6 20  1  0
 20 21  2  0
 21 22  1  0
 22 23  2  0
 23  2  1  0
 20  3  1  0
 18  7  1  0
  1 24  1  0
  1 25  1  0
  5 26  1  0
  7 27  1  6
  9 28  1  6
 10 29  1  0
 10 30  1  0
 13 31  1  0
 14 32  1  0
 16 33  1  1
 17 34  1  0
 18 35  1  6
 19 36  1  0
 22 37  1  0
M  END
$$$$
