
     RDKit          3D

 35 37  0  0  0  0  0  0  0  0999 V2000
    4.5984   -1.6464    2.2404 N   0  0  0  0  0  0  0  0  0  0  0  0
    3.9243   -0.7983    1.3140 C   0  0  0  0  0  0  0  0  0  0  0  0
    2.5537   -0.8268    1.2335 N   0  0  0  0  0  0  0  0  0  0  0  0
    1.8729   -0.0268    0.3562 C   0  0  0  0  0  0  0  0  0  0  0  0
    0.4792   -0.0517    0.2699 O   0  0  0  0  0  0  0  0  0  0  0  0
   -0.3274   -0.9029    1.0801 C   0  0  0  0  0  0  0  0  0  0  0  0
   -1.8167   -0.7067    0.7562 C   0  0  0  0  0  0  0  0  0  0  0  0
   -2.2600    0.7486    0.9992 C   0  0  0  0  0  0  0  0  0  0  0  0
   -3.7833    0.9157    0.8205 C   0  0  0  0  0  0  0  0  0  0  0  0
   -4.3980   -0.0775   -0.1865 C   0  0  0  0  0  0  0  0  0  0  0  0
   -3.3969   -0.4703   -1.2773 C   0  0  0  0  0  0  0  0  0  0  0  0
   -2.1491   -1.1614   -0.6895 C   0  0  0  0  0  0  0  0  0  0  0  0
    2.6186    0.8173   -0.4522 C   0  0  0  0  0  0  0  0  0  0  0  0
    2.2036    1.6920   -1.3852 N   0  0  0  0  0  0  0  0  0  0  0  0
    3.3760    2.2205   -1.8348 C   0  0  0  0  0  0  0  0  0  0  0  0
    4.4748    1.7108   -1.2224 N   0  0  0  0  0  0  0  0  0  0  0  0
    3.9658    0.8299   -0.3572 C   0  0  0  0  0  0  0  0  0  0  0  0
    4.6456    0.0411    0.5086 N   0  0  0  0  0  0  0  0  0  0  0  0
    4.0563   -2.2898    2.8586 H   0  0  0  0  0  0  0  0  0  0  0  0
    5.6402   -1.6319    2.3090 H   0  0  0  0  0  0  0  0  0  0  0  0
   -0.0467   -1.9642    0.9013 H   0  0  0  0  0  0  0  0  0  0  0  0
   -0.1484   -0.6720    2.1532 H   0  0  0  0  0  0  0  0  0  0  0  0
   -2.3897   -1.3527    1.4598 H   0  0  0  0  0  0  0  0  0  0  0  0
   -1.7347    1.4180    0.2822 H   0  0  0  0  0  0  0  0  0  0  0  0
   -1.9781    1.0686    2.0262 H   0  0  0  0  0  0  0  0  0  0  0  0
   -3.9897    1.9555    0.4851 H   0  0  0  0  0  0  0  0  0  0  0  0
   -4.2866    0.7806    1.8027 H   0  0  0  0  0  0  0  0  0  0  0  0
   -4.7258   -0.9957    0.3492 H   0  0  0  0  0  0  0  0  0  0  0  0
   -5.2982    0.3772   -0.6535 H   0  0  0  0  0  0  0  0  0  0  0  0
   -3.8886   -1.1497   -2.0067 H   0  0  0  0  0  0  0  0  0  0  0  0
   -3.0886    0.4459   -1.8279 H   0  0  0  0  0  0  0  0  0  0  0  0
   -2.3103   -2.2618   -0.6846 H   0  0  0  0  0  0  0  0  0  0  0  0
   -1.2947   -0.9619   -1.3725 H   0  0  0  0  0  0  0  0  0  0  0  0
    3.4253    2.9760   -2.6078 H   0  0  0  0  0  0  0  0  0  0  0  0
    5.4770    1.9510   -1.3891 H   0  0  0  0  0  0  0  0  0  0  0  0
  1  2  1  0
  2  3  2  0
  3  4  1  0
  4  5  1  0
  5  6  1  0
  6  7  1  0
  7  8  1  0
  8  9  1  0
  9 10  1  0
 10 11  1  0
 11 12  1  0
  4 13  2  0
 13 14  1  0
 14 15  2  0
 15 16  1  0
 16 17  1  0
 17 18  2  0
 18  2  1  0
 12  7  1  0
 17 13  1  0
  1 19  1  0
  1 20  1  0
  6 21  1  0
  6 22  1  0
  7 23  1  0
  8 24  1  0
  8 25  1  0
  9 26  1  0
  9 27  1  0
 10 28  1  0
 10 29  1  0
 11 30  1  0
 11 31  1  0
 12 32  1  0
 12 33  1  0
 15 34  1  0
 16 35  1  0
M  END
$$$$
