
     RDKit          3D

 47 50  0  0  0  0  0  0  0  0999 V2000
    9.0501   -1.0386    0.9506 F   0  0  0  0  0  0  0  0  0  0  0  0
    8.0701   -0.3738    0.2905 C   0  0  0  0  0  0  0  0  0  0  0  0
    7.2850    0.5653    0.9658 C   0  0  0  0  0  0  0  0  0  0  0  0
    6.2727    1.2510    0.2872 C   0  0  0  0  0  0  0  0  0  0  0  0
    6.0446    1.0066   -1.0777 C   0  0  0  0  0  0  0  0  0  0  0  0
    4.9339    1.7156   -1.8020 C   0  0  0  0  0  0  0  0  0  0  0  0
    3.6803    0.8964   -1.7494 C   0  0  0  0  0  0  0  0  0  0  0  0
    3.4047    0.1304   -2.7122 O   0  0  0  0  0  0  0  0  0  0  0  0
    2.8325    0.9566   -0.5907 N   0  0  0  0  0  0  0  0  0  0  0  0
    1.6308    0.1867   -0.4308 C   0  0  0  0  0  0  0  0  0  0  0  0
    1.2621   -0.6149   -1.3319 O   0  0  0  0  0  0  0  0  0  0  0  0
    0.8742    0.3052    0.7841 N   0  0  0  0  0  0  0  0  0  0  0  0
   -0.4409   -0.2447    0.9742 C   0  0  0  0  0  0  0  0  0  0  0  0
   -0.8178   -0.7016    2.2454 C   0  0  0  0  0  0  0  0  0  0  0  0
   -2.0982   -1.2194    2.4636 C   0  0  0  0  0  0  0  0  0  0  0  0
   -2.4385   -1.6686    3.6974 F   0  0  0  0  0  0  0  0  0  0  0  0
   -3.0310   -1.2624    1.4209 C   0  0  0  0  0  0  0  0  0  0  0  0
   -4.3033   -1.7964    1.6729 O   0  0  0  0  0  0  0  0  0  0  0  0
   -5.4613   -1.4869    0.9473 C   0  0  0  0  0  0  0  0  0  0  0  0
   -6.3488   -2.5130    0.5756 C   0  0  0  0  0  0  0  0  0  0  0  0
   -7.5208   -2.2050   -0.1503 C   0  0  0  0  0  0  0  0  0  0  0  0
   -7.8141   -0.9119   -0.4802 N   0  0  0  0  0  0  0  0  0  0  0  0
   -6.9620    0.0739   -0.1045 C   0  0  0  0  0  0  0  0  0  0  0  0
   -5.8153   -0.1782    0.5961 C   0  0  0  0  0  0  0  0  0  0  0  0
   -5.2357    1.0469    0.8637 C   0  0  0  0  0  0  0  0  0  0  0  0
   -6.0794    1.9886    0.2800 C   0  0  0  0  0  0  0  0  0  0  0  0
   -7.1365    1.3870   -0.3118 N   0  0  0  0  0  0  0  0  0  0  0  0
   -2.6587   -0.8016    0.1455 C   0  0  0  0  0  0  0  0  0  0  0  0
   -1.3787   -0.2847   -0.0726 C   0  0  0  0  0  0  0  0  0  0  0  0
    6.8296    0.0524   -1.7466 C   0  0  0  0  0  0  0  0  0  0  0  0
    7.8411   -0.6310   -1.0644 C   0  0  0  0  0  0  0  0  0  0  0  0
    7.4581    0.7606    2.0163 H   0  0  0  0  0  0  0  0  0  0  0  0
    5.6673    1.9702    0.8247 H   0  0  0  0  0  0  0  0  0  0  0  0
    4.7474    2.7122   -1.3462 H   0  0  0  0  0  0  0  0  0  0  0  0
    5.2232    1.8953   -2.8607 H   0  0  0  0  0  0  0  0  0  0  0  0
    3.1060    1.6011    0.1848 H   0  0  0  0  0  0  0  0  0  0  0  0
    1.3458    0.7444    1.6069 H   0  0  0  0  0  0  0  0  0  0  0  0
   -0.1120   -0.6658    3.0660 H   0  0  0  0  0  0  0  0  0  0  0  0
   -6.1298   -3.5408    0.8352 H   0  0  0  0  0  0  0  0  0  0  0  0
   -8.1960   -2.9978   -0.4431 H   0  0  0  0  0  0  0  0  0  0  0  0
   -4.3318    1.2456    1.4234 H   0  0  0  0  0  0  0  0  0  0  0  0
   -5.9308    3.0600    0.3028 H   0  0  0  0  0  0  0  0  0  0  0  0
   -7.9305    1.8508   -0.8065 H   0  0  0  0  0  0  0  0  0  0  0  0
   -3.3561   -0.8424   -0.6808 H   0  0  0  0  0  0  0  0  0  0  0  0
   -1.1331    0.1017   -1.0526 H   0  0  0  0  0  0  0  0  0  0  0  0
    6.6565   -0.1625   -2.7939 H   0  0  0  0  0  0  0  0  0  0  0  0
    8.4447   -1.3624   -1.5864 H   0  0  0  0  0  0  0  0  0  0  0  0
  1  2  1  0
  2  3  2  0
  3  4  1  0
  4  5  2  0
  5  6  1  0
  6  7  1  0
  7  8  2  0
  7  9  1  0
  9 10  1  0
 10 11  2  0
 10 12  1  0
 12 13  1  0
 13 14  2  0
 14 15  1  0
 15 16  1  0
 15 17  2  0
 17 18  1  0
 18 19  1  0
 19 20  2  0
 20 21  1  0
 21 22  2  0
 22 23  1  0
 23 24  2  0
 24 25  1  0
 25 26  2  0
 26 27  1  0
 17 28  1  0
 28 29  2  0
  5 30  1  0
 30 31  2  0
 31  2  1  0
 29 13  1  0
 24 19  1  0
 27 23  1  0
  3 32  1  0
  4 33  1  0
  6 34  1  0
  6 35  1  0
  9 36  1  0
 12 37  1  0
 14 38  1  0
 20 39  1  0
 21 40  1  0
 25 41  1  0
 26 42  1  0
 27 43  1  0
 28 44  1  0
 29 45  1  0
 30 46  1  0
 31 47  1  0
M  END
$$$$
