
     RDKit          3D

 67 71  0  0  0  0  0  0  0  0999 V2000
    7.8492   -0.8128    2.3350 N   0  0  0  0  0  0  0  0  0  0  0  0
    6.4908   -1.1699    2.6046 C   0  0  0  0  0  0  0  0  0  0  0  0
    6.2420   -1.9295    3.5797 O   0  0  0  0  0  0  0  0  0  0  0  0
    5.4139   -0.6824    1.7783 N   0  0  0  0  0  0  0  0  0  0  0  0
    5.6078    0.4996    0.9230 C   0  0  0  0  0  0  0  0  0  0  0  0
    4.2684    1.1697    0.5919 C   0  0  0  0  0  0  0  0  0  0  0  0
    3.2466    0.1896   -0.0398 C   0  0  0  0  0  0  0  0  0  0  0  0
    3.2911    0.2664   -1.5830 C   0  0  0  0  0  0  0  0  0  0  0  0
    2.2230   -0.5892   -2.2149 C   0  0  0  0  0  0  0  0  0  0  0  0
    2.5647   -1.6315   -2.8363 O   0  0  0  0  0  0  0  0  0  0  0  0
    0.8248   -0.2865   -2.0543 N   0  0  0  0  0  0  0  0  0  0  0  0
   -0.0420   -1.3330   -1.4993 C   0  0  0  0  0  0  0  0  0  0  0  0
   -1.4755   -1.1885   -2.0113 C   0  0  0  0  0  0  0  0  0  0  0  0
   -2.0316    0.2355   -1.7904 C   0  0  0  0  0  0  0  0  0  0  0  0
   -1.0815    1.2469   -2.4762 C   0  0  0  0  0  0  0  0  0  0  0  0
    0.3774    1.1128   -2.0163 C   0  0  0  0  0  0  0  0  0  0  0  0
   -2.3384    0.6068   -0.2914 C   0  0  1  0  0  0  0  0  0  0  0  0
   -3.3207    1.7644   -0.1964 C   0  0  0  0  0  0  0  0  0  0  0  0
   -4.7458    1.6577   -0.2580 C   0  0  0  0  0  0  0  0  0  0  0  0
   -5.5701    0.3819   -0.1890 C   0  0  0  0  0  0  0  0  0  0  0  0
   -4.8910   -0.9308   -0.5619 C   0  0  0  0  0  0  0  0  0  0  0  0
   -3.8662   -1.3120    0.4681 C   0  0  0  0  0  0  0  0  0  0  0  0
   -2.6846   -0.5510    0.6525 C   0  0  0  0  0  0  0  0  0  0  0  0
   -1.8265   -0.8923    1.7404 C   0  0  0  0  0  0  0  0  0  0  0  0
   -0.2399    0.0911    2.2181 Br  0  0  0  0  0  0  0  0  0  0  0  0
   -2.1227   -1.9876    2.5566 C   0  0  0  0  0  0  0  0  0  0  0  0
   -3.2668   -2.7461    2.3381 C   0  0  0  0  0  0  0  0  0  0  0  0
   -3.6258   -4.1130    3.3778 Cl  0  0  0  0  0  0  0  0  0  0  0  0
   -4.1397   -2.4038    1.3107 C   0  0  0  0  0  0  0  0  0  0  0  0
   -5.4941    2.8508   -0.2401 C   0  0  0  0  0  0  0  0  0  0  0  0
   -4.8711    4.0938   -0.1813 C   0  0  0  0  0  0  0  0  0  0  0  0
   -5.9083    5.6974   -0.1586 Br  0  0  0  0  0  0  0  0  0  0  0  0
   -3.4862    4.1530   -0.1242 C   0  0  0  0  0  0  0  0  0  0  0  0
   -2.7614    3.0085   -0.1376 N   0  0  0  0  0  0  0  0  0  0  0  0
    3.4253   -1.2685    0.4616 C   0  0  0  0  0  0  0  0  0  0  0  0
    4.0958   -1.3318    1.8354 C   0  0  0  0  0  0  0  0  0  0  0  0
    8.6112   -1.1477    2.9655 H   0  0  0  0  0  0  0  0  0  0  0  0
    8.1143   -0.2641    1.4883 H   0  0  0  0  0  0  0  0  0  0  0  0
    6.1220    0.1977   -0.0146 H   0  0  0  0  0  0  0  0  0  0  0  0
    6.2388    1.2483    1.4500 H   0  0  0  0  0  0  0  0  0  0  0  0
    3.8420    1.5667    1.5401 H   0  0  0  0  0  0  0  0  0  0  0  0
    4.4460    2.0486   -0.0654 H   0  0  0  0  0  0  0  0  0  0  0  0
    2.2407    0.5329    0.2860 H   0  0  0  0  0  0  0  0  0  0  0  0
    4.2924   -0.0588   -1.9425 H   0  0  0  0  0  0  0  0  0  0  0  0
    3.1575    1.3173   -1.9139 H   0  0  0  0  0  0  0  0  0  0  0  0
    0.3285   -2.3415   -1.7852 H   0  0  0  0  0  0  0  0  0  0  0  0
   -0.0221   -1.2747   -0.3939 H   0  0  0  0  0  0  0  0  0  0  0  0
   -1.4801   -1.4089   -3.1018 H   0  0  0  0  0  0  0  0  0  0  0  0
   -2.1212   -1.9555   -1.5378 H   0  0  0  0  0  0  0  0  0  0  0  0
   -2.9721    0.3130   -2.3706 H   0  0  0  0  0  0  0  0  0  0  0  0
   -1.4281    2.2877   -2.3072 H   0  0  0  0  0  0  0  0  0  0  0  0
   -1.1143    1.0768   -3.5756 H   0  0  0  0  0  0  0  0  0  0  0  0
    1.0012    1.7287   -2.6995 H   0  0  0  0  0  0  0  0  0  0  0  0
    0.5020    1.5203   -0.9926 H   0  0  0  0  0  0  0  0  0  0  0  0
   -1.3919    1.0245    0.0820 H   0  0  0  0  0  0  0  0  0  0  0  0
   -6.4427    0.4924   -0.8709 H   0  0  0  0  0  0  0  0  0  0  0  0
   -5.9833    0.2908    0.8400 H   0  0  0  0  0  0  0  0  0  0  0  0
   -4.4791   -0.9099   -1.5813 H   0  0  0  0  0  0  0  0  0  0  0  0
   -5.6841   -1.7094   -0.6123 H   0  0  0  0  0  0  0  0  0  0  0  0
   -1.4609   -2.2462    3.3738 H   0  0  0  0  0  0  0  0  0  0  0  0
   -5.0427   -2.9873    1.1781 H   0  0  0  0  0  0  0  0  0  0  0  0
   -6.5773    2.8154   -0.2557 H   0  0  0  0  0  0  0  0  0  0  0  0
   -2.9800    5.1077   -0.0743 H   0  0  0  0  0  0  0  0  0  0  0  0
    2.4347   -1.7707    0.5128 H   0  0  0  0  0  0  0  0  0  0  0  0
    4.0564   -1.8470   -0.2493 H   0  0  0  0  0  0  0  0  0  0  0  0
    3.4622   -0.8254    2.5955 H   0  0  0  0  0  0  0  0  0  0  0  0
    4.1994   -2.4016    2.1207 H   0  0  0  0  0  0  0  0  0  0  0  0
  1  2  1  0
  2  3  2  0
  2  4  1  0
  4  5  1  0
  5  6  1  0
  6  7  1  0
  7  8  1  0
  8  9  1  0
  9 10  2  0
  9 11  1  0
 11 12  1  0
 12 13  1  0
 13 14  1  0
 14 15  1  0
 15 16  1  0
 14 17  1  0
 17 18  1  0
 18 19  2  0
 19 20  1  0
 20 21  1  0
 21 22  1  0
 22 23  2  0
 23 24  1  0
 24 25  1  0
 24 26  2  0
 26 27  1  0
 27 28  1  0
 27 29  2  0
 19 30  1  0
 30 31  2  0
 31 32  1  0
 31 33  1  0
 33 34  2  0
  7 35  1  0
 35 36  1  0
 36  4  1  0
 16 11  1  0
 23 17  1  0
 34 18  1  0
 29 22  1  0
  1 37  1  0
  1 38  1  0
  5 39  1  0
  5 40  1  0
  6 41  1  0
  6 42  1  0
  7 43  1  0
  8 44  1  0
  8 45  1  0
 12 46  1  0
 12 47  1  0
 13 48  1  0
 13 49  1  0
 14 50  1  0
 15 51  1  0
 15 52  1  0
 16 53  1  0
 16 54  1  0
 17 55  1  1
 20 56  1  0
 20 57  1  0
 21 58  1  0
 21 59  1  0
 26 60  1  0
 29 61  1  0
 30 62  1  0
 33 63  1  0
 35 64  1  0
 35 65  1  0
 36 66  1  0
 36 67  1  0
M  END
$$$$
