
     RDKit          3D

 32 34  0  0  0  0  0  0  0  0999 V2000
   -2.1922   -0.5703    1.6327 C   0  0  1  0  0  0  0  0  0  0  0  0
   -2.4870   -2.0582    1.4471 C   0  0  0  0  0  0  0  0  0  0  0  0
   -0.8363   -0.3871    1.9607 O   0  0  0  0  0  0  0  0  0  0  0  0
   -0.4535    0.8766    1.4574 C   0  0  1  0  0  0  0  0  0  0  0  0
    0.8318    0.7649    0.7605 N   0  0  0  0  0  0  0  0  0  0  0  0
    1.8294    1.6770    0.7828 C   0  0  0  0  0  0  0  0  0  0  0  0
    2.8642    1.2989   -0.0675 C   0  0  0  0  0  0  0  0  0  0  0  0
    4.5823    2.4870   -0.3914 I   0  0  0  0  0  0  0  0  0  0  0  0
    2.4578    0.0950   -0.6387 C   0  0  0  0  0  0  0  0  0  0  0  0
    3.0065   -0.7836   -1.5861 C   0  0  0  0  0  0  0  0  0  0  0  0
    4.3012   -0.6020   -2.1613 N   0  0  0  0  0  0  0  0  0  0  0  0
    2.2621   -1.8683   -1.9525 N   0  0  0  0  0  0  0  0  0  0  0  0
    1.0256   -2.1082   -1.4210 C   0  0  0  0  0  0  0  0  0  0  0  0
    0.4973   -1.2596   -0.4956 N   0  0  0  0  0  0  0  0  0  0  0  0
    1.2208   -0.1786   -0.1161 C   0  0  0  0  0  0  0  0  0  0  0  0
   -1.5392    1.4071    0.5115 C   0  0  2  0  0  0  0  0  0  0  0  0
   -2.1843    2.5073    1.1046 O   0  0  0  0  0  0  0  0  0  0  0  0
   -2.4787    0.2287    0.3723 C   0  0  2  0  0  0  0  0  0  0  0  0
   -3.8280    0.6148    0.3199 O   0  0  0  0  0  0  0  0  0  0  0  0
   -2.8142   -0.1876    2.4745 H   0  0  0  0  0  0  0  0  0  0  0  0
   -3.5544   -2.2053    1.1771 H   0  0  0  0  0  0  0  0  0  0  0  0
   -2.2835   -2.6007    2.3945 H   0  0  0  0  0  0  0  0  0  0  0  0
   -1.8466   -2.4881    0.6477 H   0  0  0  0  0  0  0  0  0  0  0  0
   -0.3316    1.5650    2.3245 H   0  0  0  0  0  0  0  0  0  0  0  0
    1.8034    2.5891    1.3654 H   0  0  0  0  0  0  0  0  0  0  0  0
    4.9771    0.1026   -1.8065 H   0  0  0  0  0  0  0  0  0  0  0  0
    4.6295   -1.2532   -2.9086 H   0  0  0  0  0  0  0  0  0  0  0  0
    0.4639   -2.9767   -1.7359 H   0  0  0  0  0  0  0  0  0  0  0  0
   -1.1162    1.6917   -0.4820 H   0  0  0  0  0  0  0  0  0  0  0  0
   -2.6209    3.0138    0.3707 H   0  0  0  0  0  0  0  0  0  0  0  0
   -2.2041   -0.3617   -0.5343 H   0  0  0  0  0  0  0  0  0  0  0  0
   -3.9822    0.9695   -0.5943 H   0  0  0  0  0  0  0  0  0  0  0  0
  1  2  1  0
  1  3  1  0
  3  4  1  0
  4  5  1  0
  5  6  1  0
  6  7  2  0
  7  8  1  0
  7  9  1  0
  9 10  2  0
 10 11  1  0
 10 12  1  0
 12 13  2  0
 13 14  1  0
 14 15  2  0
  4 16  1  0
 16 17  1  0
 16 18  1  0
 18 19  1  0
 18  1  1  0
 15  5  1  0
 15  9  1  0
  1 20  1  1
  2 21  1  0
  2 22  1  0
  2 23  1  0
  4 24  1  1
  6 25  1  0
 11 26  1  0
 11 27  1  0
 13 28  1  0
 16 29  1  6
 17 30  1  0
 18 31  1  6
 19 32  1  0
M  END
$$$$
