
     RDKit          3D

 55 57  0  0  0  0  0  0  0  0999 V2000
   -4.3179    1.5322   -2.1777 C   0  0  0  0  0  0  0  0  0  0  0  0
   -3.4191    1.6535   -0.9259 C   0  0  0  0  0  0  0  0  0  0  0  0
   -2.8108    3.0779   -0.8883 C   0  0  0  0  0  0  0  0  0  0  0  0
   -4.2720    1.4971    0.3575 C   0  0  0  0  0  0  0  0  0  0  0  0
   -4.6552    0.0464    0.6221 C   0  0  0  0  0  0  0  0  0  0  0  0
   -3.4170   -0.8550    0.8544 C   0  0  0  0  0  0  0  0  0  0  0  0
   -3.9066   -2.3216    0.7544 C   0  0  0  0  0  0  0  0  0  0  0  0
   -2.8487   -0.6183    2.2725 C   0  0  0  0  0  0  0  0  0  0  0  0
   -2.3137   -0.5769   -0.1789 C   0  0  0  0  0  0  0  0  0  0  0  0
   -2.3120    0.5906   -1.0003 C   0  0  0  0  0  0  0  0  0  0  0  0
   -1.2931    0.7329   -1.9672 C   0  0  0  0  0  0  0  0  0  0  0  0
   -0.2515   -0.1843   -2.0628 C   0  0  0  0  0  0  0  0  0  0  0  0
   -0.1901   -1.2802   -1.1975 C   0  0  0  0  0  0  0  0  0  0  0  0
   -1.2203   -1.4690   -0.2675 C   0  0  0  0  0  0  0  0  0  0  0  0
    0.9591   -2.2678   -1.2758 C   0  0  1  0  0  0  0  0  0  0  0  0
    0.8879   -3.0337   -2.4542 O   0  0  0  0  0  0  0  0  0  0  0  0
    2.2891   -1.5680   -1.1438 C   0  0  0  0  0  0  0  0  0  0  0  0
    3.0105   -1.3861   -2.1626 O   0  0  0  0  0  0  0  0  0  0  0  0
    2.6862   -1.0411    0.1323 N   0  0  0  0  0  0  0  0  0  0  0  0
    3.9802   -0.4739    0.4002 C   0  0  0  0  0  0  0  0  0  0  0  0
    4.0940    0.6096    1.2854 C   0  0  0  0  0  0  0  0  0  0  0  0
    2.9864    1.1466    1.8567 F   0  0  0  0  0  0  0  0  0  0  0  0
    5.3472    1.1592    1.5737 C   0  0  0  0  0  0  0  0  0  0  0  0
    6.5116    0.6261    0.9939 C   0  0  0  0  0  0  0  0  0  0  0  0
    6.3977   -0.4722    0.1257 C   0  0  0  0  0  0  0  0  0  0  0  0
    5.1452   -1.0209   -0.1638 C   0  0  0  0  0  0  0  0  0  0  0  0
    7.8394    1.2046    1.2969 C   0  0  0  0  0  0  0  0  0  0  0  0
    8.9873    0.6678    0.7194 O   0  0  0  0  0  0  0  0  0  0  0  0
    7.9444    2.1879    2.0792 O   0  0  0  0  0  0  0  0  0  0  0  0
   -5.1729    2.2399   -2.1212 H   0  0  0  0  0  0  0  0  0  0  0  0
   -3.7447    1.7666   -3.1000 H   0  0  0  0  0  0  0  0  0  0  0  0
   -4.7169    0.5024   -2.2881 H   0  0  0  0  0  0  0  0  0  0  0  0
   -2.0451    3.1525   -0.0858 H   0  0  0  0  0  0  0  0  0  0  0  0
   -3.6004    3.8347   -0.6878 H   0  0  0  0  0  0  0  0  0  0  0  0
   -2.3371    3.3578   -1.8516 H   0  0  0  0  0  0  0  0  0  0  0  0
   -5.2018    2.1030    0.2768 H   0  0  0  0  0  0  0  0  0  0  0  0
   -3.7230    1.8918    1.2394 H   0  0  0  0  0  0  0  0  0  0  0  0
   -5.3277    0.0108    1.5079 H   0  0  0  0  0  0  0  0  0  0  0  0
   -5.2548   -0.3303   -0.2343 H   0  0  0  0  0  0  0  0  0  0  0  0
   -3.1393   -3.0458    1.0970 H   0  0  0  0  0  0  0  0  0  0  0  0
   -4.8023   -2.4789    1.3942 H   0  0  0  0  0  0  0  0  0  0  0  0
   -4.1800   -2.5693   -0.2943 H   0  0  0  0  0  0  0  0  0  0  0  0
   -2.0396   -1.3446    2.5008 H   0  0  0  0  0  0  0  0  0  0  0  0
   -2.4167    0.3996    2.3678 H   0  0  0  0  0  0  0  0  0  0  0  0
   -3.6409   -0.7411    3.0421 H   0  0  0  0  0  0  0  0  0  0  0  0
   -1.2957    1.5603   -2.6624 H   0  0  0  0  0  0  0  0  0  0  0  0
    0.5186   -0.0285   -2.8080 H   0  0  0  0  0  0  0  0  0  0  0  0
   -1.1598   -2.3184    0.3979 H   0  0  0  0  0  0  0  0  0  0  0  0
    0.8935   -2.9802   -0.4251 H   0  0  0  0  0  0  0  0  0  0  0  0
    0.9142   -2.4139   -3.2293 H   0  0  0  0  0  0  0  0  0  0  0  0
    1.9592   -0.9872    0.8815 H   0  0  0  0  0  0  0  0  0  0  0  0
    5.4045    2.0017    2.2518 H   0  0  0  0  0  0  0  0  0  0  0  0
    7.2772   -0.9147   -0.3251 H   0  0  0  0  0  0  0  0  0  0  0  0
    5.0923   -1.8881   -0.8085 H   0  0  0  0  0  0  0  0  0  0  0  0
    9.9011    1.0563    0.9199 H   0  0  0  0  0  0  0  0  0  0  0  0
  1  2  1  0
  2  3  1  0
  2  4  1  0
  4  5  1  0
  5  6  1  0
  6  7  1  0
  6  8  1  0
  6  9  1  0
  9 10  2  0
 10 11  1  0
 11 12  2  0
 12 13  1  0
 13 14  2  0
 13 15  1  0
 15 16  1  0
 15 17  1  0
 17 18  2  0
 17 19  1  0
 19 20  1  0
 20 21  2  0
 21 22  1  0
 21 23  1  0
 23 24  2  0
 24 25  1  0
 25 26  2  0
 24 27  1  0
 27 28  1  0
 27 29  2  0
 10  2  1  0
 26 20  1  0
 14  9  1  0
  1 30  1  0
  1 31  1  0
  1 32  1  0
  3 33  1  0
  3 34  1  0
  3 35  1  0
  4 36  1  0
  4 37  1  0
  5 38  1  0
  5 39  1  0
  7 40  1  0
  7 41  1  0
  7 42  1  0
  8 43  1  0
  8 44  1  0
  8 45  1  0
 11 46  1  0
 12 47  1  0
 14 48  1  0
 15 49  1  1
 16 50  1  0
 19 51  1  0
 23 52  1  0
 25 53  1  0
 26 54  1  0
 28 55  1  0
M  END
$$$$
